#       Name:                   Unknown
#       Creating user name:     oranit
#       Creation time:          Mon Oct  8 08:39:18 2007


#       Modifying user name:    oranit
#       Modification time:      Mon Oct  8 08:39:18 2007


@<TRIPOS>MOLECULE
Unknown
   27    27     1    0    0
SMALL
USER_CHARGES

File created by VEGA 1.5.7
@<TRIPOS>ATOM
      1 C1         -0.5194    0.6784    2.1598 C.2       1 <0>1        0.0753
      2 C2          0.2597    0.6758    0.8800 C.2       1 <0>1        0.2172
      3 C3         -2.3385   -0.9046    1.6343 C.2       1 <0>1        0.2111
      4 C4         -0.1088    1.5625    3.2973 C.3       1 <0>1       -0.0094
      5 C5         -0.8410    0.9362    4.4746 C.3       1 <0>1       -0.0343
      6 C6         -2.0762    0.3110    3.8478 C.3       1 <0>1        0.0114
      7 C7         -3.0893   -2.8228    2.9534 C.3       1 <0>1       -0.0536
      8 C8         -4.5788   -1.9009    1.1515 C.3       1 <0>1        0.0013
      9 C9         -3.5578   -1.5642    2.2344 C.3       1 <0>1        0.0389
     10 N1         -1.6593   -0.0354    2.4797 N.am      1 <0>1       -0.2118
     11 O1          0.3253    1.7888    0.2723 O.co2     1 <0>1       -0.6435
     12 O2          0.7666   -0.4392    0.5451 O.co2     1 <0>1       -0.6435
     13 O3         -2.0239   -1.1674    0.4731 O.2       1 <0>1       -0.2787
     14 S1         -5.1286   -0.4174    0.2508 S.3       1 <0>1       -0.1775
     15 H1          0.9731    1.5702    3.4556 H         1 <0>1        0.0325
     16 H2         -0.4532    2.5866    3.1183 H         1 <0>1        0.0325
     17 H3         -0.2164    0.1532    4.9230 H         1 <0>1        0.0281
     18 H4         -1.0853    1.6580    5.2592 H         1 <0>1        0.0281
     19 H5         -2.4174   -0.5758    4.3904 H         1 <0>1        0.0435
     20 H6         -2.9046    1.0249    3.7751 H         1 <0>1        0.0435
     21 H7         -2.0080   -2.9675    2.8486 H         1 <0>1        0.0237
     22 H8         -3.3245   -2.7649    4.0214 H         1 <0>1        0.0237
     23 H9         -3.5808   -3.7139    2.5470 H         1 <0>1        0.0237
     24 H10        -4.1384   -2.5856    0.4192 H         1 <0>1        0.0381
     25 H11        -5.4644   -2.3872    1.5748 H         1 <0>1        0.0381
     26 H12        -3.9765   -0.8724    2.9706 H         1 <0>1        0.0396
     27 H13        -4.8573    0.4488    1.2356 H         1 <0>1        0.1017
@<TRIPOS>BOND
     1    1    2 1
     2    1    4 1
     3    1   10 am
     4    2   11 1
     5    2   12 2
     6    3    9 1
     7    3   10 am
     8    3   13 2
     9    4    5 1
    10    4   15 1
    11    4   16 1
    12    5    6 1
    13    5   17 1
    14    5   18 1
    15    6   10 1
    16    6   19 1
    17    6   20 1
    18    7    9 1
    19    7   21 1
    20    7   22 1
    21    7   23 1
    22    8    9 1
    23    8   14 1
    24    8   24 1
    25    8   25 1
    26    9   26 1
    27   14   27 1
@<TRIPOS>SUBSTRUCTURE
     1 <0>1        1 RESIDUE           1 A     <0>     0 ROOT
#       Name:                   Unknown
#       Creating user name:     oranit
#       Creation time:          Mon Oct  8 08:39:21 2007


#       Modifying user name:    oranit
#       Modification time:      Mon Oct  8 08:39:21 2007


@<TRIPOS>MOLECULE
Unknown
   53    54     1    0    0
SMALL
USER_CHARGES

File created by VEGA 1.5.7
@<TRIPOS>ATOM
      1 C1          9.8373   -4.5503   -3.9712 C.2       1 <0>1        0.1945
      2 C2          6.8417   -4.8064   -4.8384 C.2       1 <0>1        0.2208
      3 C3          4.0277   -6.6975   -4.1611 C.2       1 <0>1        0.1939
      4 C4         -1.2297   -3.8323   -0.4321 C.3       1 <0>1       -0.0530
      5 C5         -0.9535   -3.4643   -1.8865 C.3       1 <0>1       -0.0528
      6 C6          0.0042   -3.6301    0.4418 C.3       1 <0>1       -0.0528
      7 C7          9.3367   -7.5581   -4.7086 C.3       1 <0>1       -0.0378
      8 C8          9.4278   -6.9324   -3.3189 C.3       1 <0>1       -0.0258
      9 C9          0.2537   -4.2186   -2.4391 C.3       1 <0>1       -0.0502
     10 C10         1.2131   -4.3846   -0.1069 C.3       1 <0>1       -0.0502
     11 C11         8.0264   -7.0101   -5.2534 C.3       1 <0>1        0.0072
     12 C12         8.8177   -5.5490   -3.5125 C.3       1 <0>1        0.1033
     13 C13         1.4995   -4.0104   -1.5674 C.3       1 <0>1       -0.0410
     14 C14         6.2335   -4.6929   -7.2441 C.3       1 <0>1       -0.0414
     15 C15         2.6782   -4.8165   -2.1097 C.3       1 <0>1       -0.0483
     16 C16         3.0089   -4.4220   -3.5527 C.3       1 <0>1       -0.0273
     17 C17         5.8367   -5.2184   -5.8843 C.3       1 <0>1        0.0796
     18 C18         4.2281   -5.1724   -4.1026 C.3       1 <0>1        0.0951
     19 N1          7.8604   -5.7151   -4.5983 N.am      1 <0>1       -0.2298
     20 N2          4.5981   -4.6644   -5.4266 N.3       1 <0>1       -0.2943
     21 O1         10.4777   -4.8721   -5.0101 O.co2     1 <0>1       -0.6467
     22 O2          3.0696   -7.1126   -4.8702 O.co2     1 <0>1       -0.6467
     23 O3          9.9225   -3.5134   -3.2552 O.co2     1 <0>1       -0.6467
     24 O4          6.7338   -3.7211   -4.2650 O.2       1 <0>1       -0.2776
     25 O5          4.8579   -7.3596   -3.4725 O.co2     1 <0>1       -0.6467
     26 H1         -2.0569   -3.2247   -0.0485 H         1 <0>1        0.0265
     27 H2         -1.5493   -4.8800   -0.3751 H         1 <0>1        0.0265
     28 H3         -1.8365   -3.6850   -2.4966 H         1 <0>1        0.0265
     29 H4         -0.7744   -2.3846   -1.9625 H         1 <0>1        0.0265
     30 H5          0.2384   -2.5602    0.5012 H         1 <0>1        0.0265
     31 H6         -0.2078   -3.9675    1.4628 H         1 <0>1        0.0265
     32 H7         10.1737   -7.2120   -5.3270 H         1 <0>1        0.0278
     33 H8          9.3593   -8.6511   -4.6869 H         1 <0>1        0.0278
     34 H9          8.8164   -7.5138   -2.6180 H         1 <0>1        0.0286
     35 H10        10.4551   -6.9105   -2.9428 H         1 <0>1        0.0286
     36 H11         0.0162   -5.2889   -2.4983 H         1 <0>1        0.0268
     37 H12         0.4556   -3.8814   -3.4627 H         1 <0>1        0.0268
     38 H13         2.0907   -4.1637    0.5124 H         1 <0>1        0.0268
     39 H14         1.0328   -5.4645   -0.0283 H         1 <0>1        0.0268
     40 H15         8.0314   -6.8936   -6.3410 H         1 <0>1        0.0431
     41 H16         7.1776   -7.6410   -4.9674 H         1 <0>1        0.0431
     42 H17         8.3273   -5.1692   -2.6113 H         1 <0>1        0.0578
     43 H18         1.7785   -2.9496   -1.6066 H         1 <0>1        0.0301
     44 H19         7.1620   -4.1117   -7.2017 H         1 <0>1        0.0249
     45 H20         6.3942   -5.5227   -7.9405 H         1 <0>1        0.0249
     46 H21         5.4553   -4.0425   -7.6570 H         1 <0>1        0.0249
     47 H22         3.5518   -4.6490   -1.4690 H         1 <0>1        0.0269
     48 H23         2.4336   -5.8832   -2.0539 H         1 <0>1        0.0269
     49 H24         2.1327   -4.6103   -4.1868 H         1 <0>1        0.0286
     50 H25         3.1999   -3.3417   -3.5881 H         1 <0>1        0.0286
     51 H26         5.7571   -6.3045   -5.8770 H         1 <0>1        0.0551
     52 H27         5.0866   -4.9805   -3.4466 H         1 <0>1        0.0572
     53 H28         3.8382   -4.8925   -6.0803 H         1 <0>1        0.1234
@<TRIPOS>BOND
     1    1   12 1
     2    1   21 1
     3    1   23 2
     4    2   17 1
     5    2   19 am
     6    2   24 2
     7    3   18 1
     8    3   22 1
     9    3   25 2
    10    4    5 1
    11    4    6 1
    12    4   26 1
    13    4   27 1
    14    5    9 1
    15    5   28 1
    16    5   29 1
    17    6   10 1
    18    6   30 1
    19    6   31 1
    20    7    8 1
    21    7   11 1
    22    7   32 1
    23    7   33 1
    24    8   12 1
    25    8   34 1
    26    8   35 1
    27    9   13 1
    28    9   36 1
    29    9   37 1
    30   10   13 1
    31   10   38 1
    32   10   39 1
    33   11   19 1
    34   11   40 1
    35   11   41 1
    36   12   19 1
    37   12   42 1
    38   13   15 1
    39   13   43 1
    40   14   17 1
    41   14   44 1
    42   14   45 1
    43   14   46 1
    44   15   16 1
    45   15   47 1
    46   15   48 1
    47   16   18 1
    48   16   49 1
    49   16   50 1
    50   17   20 1
    51   17   51 1
    52   18   20 1
    53   18   52 1
    54   20   53 1
@<TRIPOS>SUBSTRUCTURE
     1 <0>1        1 RESIDUE           1 A     <0>     0 ROOT
#       Name:                   Unknown
#       Creating user name:     oranit
#       Creation time:          Mon Oct  8 08:39:28 2007


#       Modifying user name:    oranit
#       Modification time:      Mon Oct  8 08:39:28 2007


@<TRIPOS>MOLECULE
Unknown
   63    64     1    0    0
SMALL
USER_CHARGES

File created by VEGA 1.5.7
@<TRIPOS>ATOM
      1 C1          4.3587   -8.3510   -2.4537 C.2       1 <0>1       -0.0593
      2 C2          3.7777   -7.4784   -1.6118 C.2       1 <0>1        0.0860
      3 C3          2.5552   -8.0308   -0.8595 C.2       1 <0>1        0.2207
      4 C4          3.8145   -1.1024   -0.0002 C.2       1 <0>1        0.1945
      5 C5          4.3823   -4.1653   -0.2961 C.2       1 <0>1        0.2213
      6 C6          5.0724   -7.1812   -7.5438 C.3       1 <0>1       -0.0530
      7 C7          3.8211   -7.4024   -6.6998 C.3       1 <0>1       -0.0528
      8 C8          6.1998   -8.1233   -7.1333 C.3       1 <0>1       -0.0528
      9 C9          1.4368   -2.3352   -1.6334 C.3       1 <0>1       -0.0378
     10 C10         2.6223   -1.5298   -2.1597 C.3       1 <0>1       -0.0258
     11 C11         4.1228   -7.2972   -5.2066 C.3       1 <0>1       -0.0499
     12 C12         6.5055   -8.0194   -5.6408 C.3       1 <0>1       -0.0499
     13 C13         2.0707   -3.6493   -1.2028 C.3       1 <0>1        0.0072
     14 C14         3.7666   -1.9422   -1.2411 C.3       1 <0>1        0.1033
     15 C15         5.2507   -8.2501   -4.7880 C.3       1 <0>1       -0.0376
     16 C16         5.5704   -8.0882   -3.3031 C.3       1 <0>1       -0.0299
     17 C17         4.4726   -5.5426    2.3885 C.3       1 <0>1       -0.0496
     18 C18         5.2049   -6.2625    3.5225 C.3       1 <0>1       -0.0278
     19 C19         4.6934   -6.2485    1.0473 C.3       1 <0>1       -0.0290
     20 C20         5.0106   -5.5362    4.8453 C.3       1 <0>1        0.1103
     21 C21         3.9183   -5.5848   -0.0881 C.3       1 <0>1        0.0859
     22 N1          3.4387   -3.3004   -0.8281 N.am      1 <0>1       -0.2298
     23 N2          4.1411   -6.2209   -1.3568 N.pl3     1 <0>1       -0.2718
     24 N3          5.7726   -6.2420    5.9034 N.4       1 <0>1       -0.0749
     25 O1          2.7986   -8.5869    0.2500 O.co2     1 <0>1       -0.6433
     26 O2          2.7420   -1.0600    0.6638 O.co2     1 <0>1       -0.6467
     27 O3          1.4501   -7.8761   -1.4560 O.co2     1 <0>1       -0.6433
     28 O4          4.9263   -0.5448    0.2193 O.co2     1 <0>1       -0.6467
     29 O5          5.5295   -3.8345    0.0087 O.2       1 <0>1       -0.2776
     30 H1          3.9502   -9.3567   -2.5450 H         1 <0>1        0.0590
     31 H2          4.8341   -7.3306   -8.6029 H         1 <0>1        0.0265
     32 H3          5.4071   -6.1424   -7.4349 H         1 <0>1        0.0265
     33 H4          3.0569   -6.6666   -6.9738 H         1 <0>1        0.0265
     34 H5          3.4036   -8.3931   -6.9181 H         1 <0>1        0.0265
     35 H6          5.9203   -9.1555   -7.3773 H         1 <0>1        0.0265
     36 H7          7.1021   -7.8920   -7.7108 H         1 <0>1        0.0265
     37 H8          0.9995   -1.8277   -0.7652 H         1 <0>1        0.0278
     38 H9          0.6492   -2.4723   -2.3794 H         1 <0>1        0.0278
     39 H10         2.8423   -1.8377   -3.1892 H         1 <0>1        0.0286
     40 H11         2.4236   -0.4537   -2.1576 H         1 <0>1        0.0286
     41 H12         4.4013   -6.2630   -4.9652 H         1 <0>1        0.0268
     42 H13         3.2144   -7.5227   -4.6355 H         1 <0>1        0.0268
     43 H14         7.2753   -8.7541   -5.3759 H         1 <0>1        0.0268
     44 H15         6.9249   -7.0283   -5.4247 H         1 <0>1        0.0268
     45 H16         1.5497   -4.1202   -0.3641 H         1 <0>1        0.0431
     46 H17         2.1226   -4.3613   -2.0338 H         1 <0>1        0.0431
     47 H18         4.7429   -1.9063   -1.7334 H         1 <0>1        0.0578
     48 H19         4.9099   -9.2819   -4.9422 H         1 <0>1        0.0304
     49 H20         6.3534   -8.8015   -3.0210 H         1 <0>1        0.0311
     50 H21         5.9831   -7.0891   -3.1320 H         1 <0>1        0.0311
     51 H22         3.3992   -5.5059    2.6109 H         1 <0>1        0.0266
     52 H23         4.8265   -4.5066    2.3277 H         1 <0>1        0.0266
     53 H24         4.8329   -7.2913    3.6053 H         1 <0>1        0.0282
     54 H25         6.2745   -6.3259    3.2868 H         1 <0>1        0.0282
     55 H26         5.7664   -6.2652    0.8154 H         1 <0>1        0.0285
     56 H27         4.3781   -7.2962    1.1357 H         1 <0>1        0.0285
     57 H28         5.3912   -4.5112    4.8101 H         1 <0>1        0.0559
     58 H29         3.9628   -5.5297    5.1595 H         1 <0>1        0.0559
     59 H30         2.8416   -5.5779    0.1074 H         1 <0>1        0.0556
     60 H31         4.5983   -5.7053   -2.1139 H         1 <0>1        0.1286
     61 H32         5.2127   -6.3385    6.7576 H         1 <0>1        0.2742
     62 H33         6.6284   -5.7294    6.1436 H         1 <0>1        0.2742
     63 H34         6.0439   -7.1825    5.5960 H         1 <0>1        0.2742
@<TRIPOS>BOND
     1    1    2 2
     2    1   16 1
     3    1   30 1
     4    2    3 1
     5    2   23 1
     6    3   25 1
     7    3   27 2
     8    4   14 1
     9    4   26 1
    10    4   28 2
    11    5   21 1
    12    5   22 am
    13    5   29 2
    14    6    7 1
    15    6    8 1
    16    6   31 1
    17    6   32 1
    18    7   11 1
    19    7   33 1
    20    7   34 1
    21    8   12 1
    22    8   35 1
    23    8   36 1
    24    9   10 1
    25    9   13 1
    26    9   37 1
    27    9   38 1
    28   10   14 1
    29   10   39 1
    30   10   40 1
    31   11   15 1
    32   11   41 1
    33   11   42 1
    34   12   15 1
    35   12   43 1
    36   12   44 1
    37   13   22 1
    38   13   45 1
    39   13   46 1
    40   14   22 1
    41   14   47 1
    42   15   16 1
    43   15   48 1
    44   16   49 1
    45   16   50 1
    46   17   18 1
    47   17   19 1
    48   17   51 1
    49   17   52 1
    50   18   20 1
    51   18   53 1
    52   18   54 1
    53   19   21 1
    54   19   55 1
    55   19   56 1
    56   20   24 1
    57   20   57 1
    58   20   58 1
    59   21   23 1
    60   21   59 1
    61   23   60 1
    62   24   61 1
    63   24   62 1
    64   24   63 1
@<TRIPOS>SUBSTRUCTURE
     1 <0>1        1 RESIDUE           1 A     <0>     0 ROOT
