UNK:D:1
     RDKit          3D

 20 23  0  0  1  0  0  0  0  0999 V2000
   16.3380   20.1330   25.1910 C   0  0  0  0  0  3  0  0  0  0  0  0
   15.2260   20.9520   25.4060 C   0  0  0  0  0  3  0  0  0  0  0  0
   13.9620   20.4810   25.1120 C   0  0  0  0  0  0  0  0  0  0  0  0
   12.8180   21.1550   25.4170 O   0  0  0  0  0  1  0  0  0  0  0  0
   13.7990   19.2020   24.5640 C   0  0  0  0  0  3  0  0  0  0  0  0
   14.9420   18.3940   24.2520 C   0  0  0  0  0  0  0  0  0  0  0  0
   14.7270   17.0920   23.5180 C   0  0  0  0  0  2  0  0  0  0  0  0
   16.0360   16.7040   22.8080 C   0  0  0  0  0  2  0  0  0  0  0  0
   17.1450   16.6810   23.7720 C   0  0  0  0  0  3  0  0  0  0  0  0
   17.4930   18.0720   24.2870 C   0  0  0  0  0  3  0  0  0  0  0  0
   16.2570   18.8450   24.5640 C   0  0  0  0  0  0  0  0  0  0  0  0
   18.6010   18.0420   25.3620 C   0  0  0  0  0  2  0  0  0  0  0  0
   19.8880   17.2630   24.8150 C   0  0  0  0  0  2  0  0  0  0  0  0
   19.5540   15.8280   24.1810 C   0  0  1  0  0  0  0  0  0  0  0  0
   18.3850   15.9960   23.2420 C   0  0  0  0  0  3  0  0  0  0  0  0
   18.2830   14.7270   22.4830 C   0  0  0  0  0  2  0  0  0  0  0  0
   19.7740   14.2860   22.4090 C   0  0  0  0  0  2  0  0  0  0  0  0
   20.5810   15.3080   23.2160 C   0  0  0  0  0  3  0  0  0  0  0  0
   21.6590   14.5950   23.8060 O   0  0  0  0  0  1  0  0  0  0  0  0
   19.2110   14.8430   25.3520 C   0  0  0  0  0  1  0  0  0  0  0  0
  1  2  2  0
  1 11  1  0
  2  3  1  0
  3  4  1  0
  3  5  2  0
  5  6  1  0
  6 11  2  0
  6  7  1  0
  7  8  1  0
  9  8  1  0
  9 10  1  0
  9 15  1  0
 10 11  1  0
 10 12  1  0
 12 13  1  0
 13 14  1  0
 14 18  1  0
 14 20  1  1
 14 15  1  0
 15 16  1  0
 16 17  1  0
 17 18  1  0
 18 19  1  0
M  RAD  8   1   2   2   2   4   2   5   2   7   3   8   3   9   2  10   2
M  RAD  8  12   3  13   3  15   2  16   3  17   3  18   2  19   2  20   2
M  END
>  <Name>  (1) 
UNK

>  <Chain>  (1) 
D

>  <ResNr>  (1) 
1

$$$$
UNK:D:1
     RDKit          3D

 20 23  0  0  1  0  0  0  0  0999 V2000
   16.8710   20.0890   25.0590 C   0  0  0  0  0  3  0  0  0  0  0  0
   15.6940   20.8740   25.2930 C   0  0  0  0  0  3  0  0  0  0  0  0
   14.4640   20.4890   24.7900 C   0  0  0  0  0  0  0  0  0  0  0  0
   13.3780   21.2450   25.0370 O   0  0  0  0  0  1  0  0  0  0  0  0
   14.3370   19.2850   24.0810 C   0  0  0  0  0  3  0  0  0  0  0  0
   15.4430   18.4720   23.8300 C   0  0  0  0  0  0  0  0  0  0  0  0
   15.2840   17.1290   23.1270 C   0  0  0  0  0  2  0  0  0  0  0  0
   16.6310   16.6280   22.4770 C   0  0  0  0  0  2  0  0  0  0  0  0
   17.7350   16.6010   23.5720 C   0  0  0  0  0  3  0  0  0  0  0  0
   18.0490   18.1060   23.9080 C   0  0  0  0  0  3  0  0  0  0  0  0
   16.7500   18.8700   24.3220 C   0  0  0  0  0  0  0  0  0  0  0  0
   19.2280   18.1910   24.8650 C   0  0  0  0  0  2  0  0  0  0  0  0
   20.4620   17.5640   24.1300 C   0  0  0  0  0  2  0  0  0  0  0  0
   20.2620   16.0660   23.7030 C   0  0  1  0  0  0  0  0  0  0  0  0
   19.0030   15.9380   22.8760 C   0  0  0  0  0  3  0  0  0  0  0  0
   19.0480   14.5730   22.3830 C   0  0  0  0  0  2  0  0  0  0  0  0
   20.5010   14.1660   22.2760 C   0  0  0  0  0  2  0  0  0  0  0  0
   21.2990   15.3750   22.7700 C   0  0  0  0  0  3  0  0  0  0  0  0
   22.6200   15.0290   23.3820 O   0  0  0  0  0  1  0  0  0  0  0  0
   20.0050   15.3160   25.0430 C   0  0  0  0  0  1  0  0  0  0  0  0
  1  2  2  0
  1 11  1  0
  2  3  1  0
  3  4  1  0
  3  5  2  0
  5  6  1  0
  6 11  2  0
  6  7  1  0
  7  8  1  0
  9  8  1  0
  9 10  1  0
  9 15  1  0
 10 11  1  0
 10 12  1  0
 12 13  1  0
 13 14  1  0
 14 18  1  0
 14 20  1  1
 14 15  1  0
 15 16  1  0
 16 17  1  0
 17 18  1  0
 18 19  1  0
M  RAD  8   1   2   2   2   4   2   5   2   7   3   8   3   9   2  10   2
M  RAD  8  12   3  13   3  15   2  16   3  17   3  18   2  19   2  20   2
M  END
>  <Name>  (2) 
UNK

>  <Chain>  (2) 
D

>  <ResNr>  (2) 
1

$$$$
UNK:D:1
     RDKit          3D

 20 23  0  0  1  0  0  0  0  0999 V2000
   16.7940   20.4840   25.2020 C   0  0  0  0  0  3  0  0  0  0  0  0
   15.7230   21.2610   25.4540 C   0  0  0  0  0  3  0  0  0  0  0  0
   14.4560   20.8140   25.0850 C   0  0  0  0  0  0  0  0  0  0  0  0
   13.3560   21.5210   25.3850 O   0  0  0  0  0  1  0  0  0  0  0  0
   14.2810   19.5680   24.5830 C   0  0  0  0  0  3  0  0  0  0  0  0
   15.4120   18.7500   24.2430 C   0  0  0  0  0  0  0  0  0  0  0  0
   15.1390   17.4020   23.6540 C   0  0  0  0  0  2  0  0  0  0  0  0
   16.4070   16.8580   23.0220 C   0  0  0  0  0  2  0  0  0  0  0  0
   17.6570   17.0010   23.8970 C   0  0  0  0  0  3  0  0  0  0  0  0
   17.9210   18.4650   24.1000 C   0  0  0  0  0  3  0  0  0  0  0  0
   16.6870   19.2660   24.4580 C   0  0  0  0  0  0  0  0  0  0  0  0
   19.1690   18.5830   24.9690 C   0  0  0  0  0  2  0  0  0  0  0  0
   20.4420   17.9490   24.3680 C   0  0  0  0  0  2  0  0  0  0  0  0
   20.1250   16.3850   24.0950 C   0  0  1  0  0  0  0  0  0  0  0  0
   18.8970   16.2650   23.2450 C   0  0  0  0  0  3  0  0  0  0  0  0
   18.9040   14.8520   22.6540 C   0  0  0  0  0  2  0  0  0  0  0  0
   20.3850   14.4790   22.6090 C   0  0  0  0  0  2  0  0  0  0  0  0
   21.1680   15.6330   23.1940 C   0  0  0  0  0  3  0  0  0  0  0  0
   22.4110   15.2550   23.7610 O   0  0  0  0  0  1  0  0  0  0  0  0
   19.9990   15.6550   25.4120 C   0  0  0  0  0  1  0  0  0  0  0  0
  1  2  2  0
  1 11  1  0
  2  3  1  0
  3  4  1  0
  3  5  2  0
  5  6  1  0
  6 11  2  0
  6  7  1  0
  7  8  1  0
  9  8  1  0
  9 10  1  0
  9 15  1  0
 10 11  1  0
 10 12  1  0
 12 13  1  0
 13 14  1  0
 14 18  1  0
 14 20  1  1
 14 15  1  0
 15 16  1  0
 16 17  1  0
 17 18  1  0
 18 19  1  0
M  RAD  8   1   2   2   2   4   2   5   2   7   3   8   3   9   2  10   2
M  RAD  8  12   3  13   3  15   2  16   3  17   3  18   2  19   2  20   2
M  END
>  <Name>  (3) 
UNK

>  <Chain>  (3) 
D

>  <ResNr>  (3) 
1

$$$$
UNK:D:1
     RDKit          3D

 20 23  0  0  1  0  0  0  0  0999 V2000
   16.1710   19.9580   24.7940 C   0  0  0  0  0  3  0  0  0  0  0  0
   14.9330   20.5830   25.1130 C   0  0  0  0  0  3  0  0  0  0  0  0
   13.7720   19.9950   24.6440 C   0  0  0  0  0  0  0  0  0  0  0  0
   12.6100   20.5800   25.0080 O   0  0  0  0  0  1  0  0  0  0  0  0
   13.8410   18.8980   23.8460 C   0  0  0  0  0  3  0  0  0  0  0  0
   15.0930   18.3580   23.4680 C   0  0  0  0  0  0  0  0  0  0  0  0
   14.9980   17.1380   22.5580 C   0  0  0  0  0  2  0  0  0  0  0  0
   16.2730   16.7490   21.9980 C   0  0  0  0  0  2  0  0  0  0  0  0
   17.3440   16.7600   23.1590 C   0  0  0  0  0  3  0  0  0  0  0  0
   17.5730   18.2150   23.6040 C   0  0  0  0  0  3  0  0  0  0  0  0
   16.2930   18.8570   23.9710 C   0  0  0  0  0  0  0  0  0  0  0  0
   18.7270   18.2000   24.6180 C   0  0  0  0  0  2  0  0  0  0  0  0
   19.9790   17.4810   24.0640 C   0  0  0  0  0  2  0  0  0  0  0  0
   19.6370   16.0750   23.7590 C   0  0  1  0  0  0  0  0  0  0  0  0
   18.5960   16.0770   22.6480 C   0  0  0  0  0  3  0  0  0  0  0  0
   18.5950   14.7320   22.0380 C   0  0  0  0  0  2  0  0  0  0  0  0
   20.0260   14.1400   22.3140 C   0  0  0  0  0  2  0  0  0  0  0  0
   20.7720   15.2620   22.9930 C   0  0  0  0  0  3  0  0  0  0  0  0
   21.8850   14.6690   23.7310 O   0  0  0  0  0  1  0  0  0  0  0  0
   19.2920   15.2090   25.0660 C   0  0  0  0  0  1  0  0  0  0  0  0
  1  2  2  0
  1 11  1  0
  2  3  1  0
  3  4  1  0
  3  5  2  0
  5  6  1  0
  6 11  2  0
  6  7  1  0
  7  8  1  0
  9  8  1  0
  9 10  1  0
  9 15  1  0
 10 11  1  0
 10 12  1  0
 12 13  1  0
 13 14  1  0
 14 18  1  0
 14 20  1  1
 14 15  1  0
 15 16  1  0
 16 17  1  0
 17 18  1  0
 18 19  1  0
M  RAD  8   1   2   2   2   4   2   5   2   7   3   8   3   9   2  10   2
M  RAD  8  12   3  13   3  15   2  16   3  17   3  18   2  19   2  20   2
M  END
>  <Name>  (4) 
UNK

>  <Chain>  (4) 
D

>  <ResNr>  (4) 
1

$$$$
UNK:D:1
     RDKit          3D

 20 23  0  0  1  0  0  0  0  0999 V2000
   16.8610   19.8270   25.3330 C   0  0  0  0  0  3  0  0  0  0  0  0
   15.7690   20.5900   25.7320 C   0  0  0  0  0  3  0  0  0  0  0  0
   14.5210   20.3150   25.0940 C   0  0  0  0  0  0  0  0  0  0  0  0
   13.3290   20.9660   25.4680 O   0  0  0  0  0  1  0  0  0  0  0  0
   14.3780   19.2670   24.1550 C   0  0  0  0  0  3  0  0  0  0  0  0
   15.4890   18.5270   23.7300 C   0  0  0  0  0  0  0  0  0  0  0  0
   15.3660   17.4720   22.6290 C   0  0  0  0  0  2  0  0  0  0  0  0
   16.5970   16.9970   21.9710 C   0  0  0  0  0  2  0  0  0  0  0  0
   17.6970   16.7570   23.0680 C   0  0  0  0  0  3  0  0  0  0  0  0
   18.0120   18.0740   23.8700 C   0  0  0  0  0  3  0  0  0  0  0  0
   16.7720   18.8070   24.3130 C   0  0  0  0  0  0  0  0  0  0  0  0
   18.9320   17.7520   24.9920 C   0  0  0  0  0  2  0  0  0  0  0  0
   20.2580   17.1150   24.4960 C   0  0  0  0  0  2  0  0  0  0  0  0
   20.0060   15.8830   23.5700 C   0  0  1  0  0  0  0  0  0  0  0  0
   19.0290   16.2680   22.5220 C   0  0  0  0  0  3  0  0  0  0  0  0
   19.1240   15.1410   21.4080 C   0  0  0  0  0  2  0  0  0  0  0  0
   20.4920   14.5340   21.5690 C   0  0  0  0  0  2  0  0  0  0  0  0
   21.1260   15.3740   22.7120 C   0  0  0  0  0  3  0  0  0  0  0  0
   22.1440   14.4970   23.3000 O   0  0  0  0  0  1  0  0  0  0  0  0
   19.4500   14.7350   24.3920 C   0  0  0  0  0  1  0  0  0  0  0  0
  1  2  2  0
  1 11  1  0
  2  3  1  0
  3  4  1  0
  3  5  2  0
  5  6  1  0
  6 11  2  0
  6  7  1  0
  7  8  1  0
  9  8  1  0
  9 10  1  0
  9 15  1  0
 10 11  1  0
 10 12  1  0
 12 13  1  0
 13 14  1  0
 14 18  1  0
 14 20  1  1
 14 15  1  0
 15 16  1  0
 16 17  1  0
 17 18  1  0
 18 19  1  0
M  RAD  8   1   2   2   2   4   2   5   2   7   3   8   3   9   2  10   2
M  RAD  8  12   3  13   3  15   2  16   3  17   3  18   2  19   2  20   2
M  END
>  <Name>  (5) 
UNK

>  <Chain>  (5) 
D

>  <ResNr>  (5) 
1

$$$$
UNK:D:1
     RDKit          3D

 20 23  0  0  1  0  0  0  0  0999 V2000
   17.0430   20.0910   24.7410 C   0  0  0  0  0  3  0  0  0  0  0  0
   15.8820   20.7080   25.2350 C   0  0  0  0  0  3  0  0  0  0  0  0
   14.5800   20.2280   24.8870 C   0  0  0  0  0  0  0  0  0  0  0  0
   13.4940   20.9180   25.2730 O   0  0  0  0  0  1  0  0  0  0  0  0
   14.4510   18.9950   24.1420 C   0  0  0  0  0  3  0  0  0  0  0  0
   15.5730   18.3580   23.7280 C   0  0  0  0  0  0  0  0  0  0  0  0
   15.4540   17.1210   22.9360 C   0  0  0  0  0  2  0  0  0  0  0  0
   16.7180   16.8770   22.0710 C   0  0  0  0  0  2  0  0  0  0  0  0
   17.8930   16.7390   23.0190 C   0  0  0  0  0  3  0  0  0  0  0  0
   18.1490   18.1580   23.7050 C   0  0  0  0  0  3  0  0  0  0  0  0
   16.8960   18.8910   24.0530 C   0  0  0  0  0  0  0  0  0  0  0  0
   19.1610   17.8490   24.8240 C   0  0  0  0  0  2  0  0  0  0  0  0
   20.5070   17.1220   24.4250 C   0  0  0  0  0  2  0  0  0  0  0  0
   20.2160   15.9240   23.4960 C   0  0  1  0  0  0  0  0  0  0  0  0
   19.1950   16.2820   22.3550 C   0  0  0  0  0  3  0  0  0  0  0  0
   19.2410   15.2020   21.3030 C   0  0  0  0  0  2  0  0  0  0  0  0
   20.7200   14.7180   21.3800 C   0  0  0  0  0  2  0  0  0  0  0  0
   21.2790   15.4860   22.5180 C   0  0  0  0  0  3  0  0  0  0  0  0
   22.3540   14.7450   23.1620 O   0  0  0  0  0  1  0  0  0  0  0  0
   19.8680   14.6630   24.3420 C   0  0  0  0  0  1  0  0  0  0  0  0
  1  2  2  0
  1 11  1  0
  2  3  1  0
  3  4  1  0
  3  5  2  0
  5  6  1  0
  6 11  2  0
  6  7  1  0
  7  8  1  0
  9  8  1  0
  9 10  1  0
  9 15  1  0
 10 11  1  0
 10 12  1  0
 12 13  1  0
 13 14  1  0
 14 18  1  0
 14 20  1  1
 14 15  1  0
 15 16  1  0
 16 17  1  0
 17 18  1  0
 18 19  1  0
M  RAD  8   1   2   2   2   4   2   5   2   7   3   8   3   9   2  10   2
M  RAD  8  12   3  13   3  15   2  16   3  17   3  18   2  19   2  20   2
M  END
>  <Name>  (6) 
UNK

>  <Chain>  (6) 
D

>  <ResNr>  (6) 
1

$$$$
UNK:D:1
     RDKit          3D

 20 23  0  0  1  0  0  0  0  0999 V2000
   16.0650   20.1550   24.6160 C   0  0  0  0  0  3  0  0  0  0  0  0
   14.8650   20.6550   25.1780 C   0  0  0  0  0  3  0  0  0  0  0  0
   13.7360   19.9740   25.1460 C   0  0  0  0  0  0  0  0  0  0  0  0
   12.5210   20.5210   25.5530 O   0  0  0  0  0  1  0  0  0  0  0  0
   13.7160   18.7520   24.5050 C   0  0  0  0  0  3  0  0  0  0  0  0
   14.8970   18.2060   23.9700 C   0  0  0  0  0  0  0  0  0  0  0  0
   14.7490   16.8300   23.3170 C   0  0  0  0  0  2  0  0  0  0  0  0
   15.9470   16.4470   22.4490 C   0  0  0  0  0  2  0  0  0  0  0  0
   17.2230   16.7440   23.2220 C   0  0  0  0  0  3  0  0  0  0  0  0
   17.3440   18.2890   23.4100 C   0  0  0  0  0  3  0  0  0  0  0  0
   16.1230   18.8970   24.0300 C   0  0  0  0  0  0  0  0  0  0  0  0
   18.6240   18.4790   24.2920 C   0  0  0  0  0  2  0  0  0  0  0  0
   19.9990   17.9570   23.5940 C   0  0  0  0  0  2  0  0  0  0  0  0
   19.7980   16.3870   23.2600 C   0  0  1  0  0  0  0  0  0  0  0  0
   18.4360   16.1590   22.4290 C   0  0  0  0  0  3  0  0  0  0  0  0
   18.7170   14.6590   22.0270 C   0  0  0  0  0  2  0  0  0  0  0  0
   20.2190   14.4600   21.7790 C   0  0  0  0  0  2  0  0  0  0  0  0
   20.8440   15.7250   22.3980 C   0  0  0  0  0  3  0  0  0  0  0  0
   22.1410   15.3380   22.9610 O   0  0  0  0  0  1  0  0  0  0  0  0
   19.8920   15.7280   24.6280 C   0  0  0  0  0  1  0  0  0  0  0  0
  1  2  2  0
  1 11  1  0
  2  3  1  0
  3  4  1  0
  3  5  2  0
  5  6  1  0
  6 11  2  0
  6  7  1  0
  7  8  1  0
  9  8  1  0
  9 10  1  0
  9 15  1  0
 10 11  1  0
 10 12  1  0
 12 13  1  0
 13 14  1  0
 14 18  1  0
 14 20  1  1
 14 15  1  0
 15 16  1  0
 16 17  1  0
 17 18  1  0
 18 19  1  0
M  RAD  8   1   2   2   2   4   2   5   2   7   3   8   3   9   2  10   2
M  RAD  8  12   3  13   3  15   2  16   3  17   3  18   2  19   2  20   2
M  END
>  <Name>  (7) 
UNK

>  <Chain>  (7) 
D

>  <ResNr>  (7) 
1

$$$$
UNK:D:1
     RDKit          3D

 20 23  0  0  1  0  0  0  0  0999 V2000
   16.7610   20.1670   24.7170 C   0  0  0  0  0  3  0  0  0  0  0  0
   15.5730   20.7810   25.2780 C   0  0  0  0  0  3  0  0  0  0  0  0
   14.2670   20.1650   25.0200 C   0  0  0  0  0  0  0  0  0  0  0  0
   13.1930   20.8590   25.5340 O   0  0  0  0  0  1  0  0  0  0  0  0
   14.2270   19.0460   24.1260 C   0  0  0  0  0  3  0  0  0  0  0  0
   15.4180   18.5320   23.4720 C   0  0  0  0  0  0  0  0  0  0  0  0
   15.2980   17.4000   22.4390 C   0  0  0  0  0  2  0  0  0  0  0  0
   16.5790   17.0880   21.6810 C   0  0  0  0  0  2  0  0  0  0  0  0
   17.7170   17.0480   22.7400 C   0  0  0  0  0  3  0  0  0  0  0  0
   17.9680   18.4870   23.2830 C   0  0  0  0  0  3  0  0  0  0  0  0
   16.6960   19.0770   23.8490 C   0  0  0  0  0  0  0  0  0  0  0  0
   19.1560   18.4310   24.3920 C   0  0  0  0  0  2  0  0  0  0  0  0
   20.4040   17.7420   23.7980 C   0  0  0  0  0  2  0  0  0  0  0  0
   20.0740   16.3840   23.2090 C   0  0  1  0  0  0  0  0  0  0  0  0
   18.9350   16.4460   22.1170 C   0  0  0  0  0  3  0  0  0  0  0  0
   18.9570   15.1110   21.4440 C   0  0  0  0  0  2  0  0  0  0  0  0
   20.3830   14.7640   21.4630 C   0  0  0  0  0  2  0  0  0  0  0  0
   21.1910   15.8230   22.3030 C   0  0  0  0  0  3  0  0  0  0  0  0
   22.1600   15.1590   23.1340 O   0  0  0  0  0  1  0  0  0  0  0  0
   19.8170   15.4030   24.3970 C   0  0  0  0  0  1  0  0  0  0  0  0
  1  2  2  0
  1 11  1  0
  2  3  1  0
  3  4  1  0
  3  5  2  0
  5  6  1  0
  6 11  2  0
  6  7  1  0
  7  8  1  0
  9  8  1  0
  9 10  1  0
  9 15  1  0
 10 11  1  0
 10 12  1  0
 12 13  1  0
 13 14  1  0
 14 18  1  0
 14 20  1  1
 14 15  1  0
 15 16  1  0
 16 17  1  0
 17 18  1  0
 18 19  1  0
M  RAD  8   1   2   2   2   4   2   5   2   7   3   8   3   9   2  10   2
M  RAD  8  12   3  13   3  15   2  16   3  17   3  18   2  19   2  20   2
M  END
>  <Name>  (8) 
UNK

>  <Chain>  (8) 
D

>  <ResNr>  (8) 
1

$$$$
UNK:D:1
     RDKit          3D

 20 23  0  0  1  0  0  0  0  0999 V2000
   16.2350   20.1710   24.9690 C   0  0  0  0  0  3  0  0  0  0  0  0
   15.1280   20.6920   25.5130 C   0  0  0  0  0  3  0  0  0  0  0  0
   13.8080   20.0950   25.3610 C   0  0  0  0  0  0  0  0  0  0  0  0
   12.6680   20.5080   26.0050 O   0  0  0  0  0  1  0  0  0  0  0  0
   13.7410   18.9540   24.6360 C   0  0  0  0  0  3  0  0  0  0  0  0
   14.8580   18.3810   24.0950 C   0  0  0  0  0  0  0  0  0  0  0  0
   14.6630   17.0580   23.4590 C   0  0  0  0  0  2  0  0  0  0  0  0
   15.8080   16.8300   22.4930 C   0  0  0  0  0  2  0  0  0  0  0  0
   17.1400   16.7980   23.3000 C   0  0  0  0  0  3  0  0  0  0  0  0
   17.3950   18.2290   23.7200 C   0  0  0  0  0  3  0  0  0  0  0  0
   16.1360   18.9260   24.3120 C   0  0  0  0  0  0  0  0  0  0  0  0
   18.6410   18.2440   24.6490 C   0  0  0  0  0  2  0  0  0  0  0  0
   19.8000   17.5770   23.9600 C   0  0  0  0  0  2  0  0  0  0  0  0
   19.5970   16.1110   23.4740 C   0  0  1  0  0  0  0  0  0  0  0  0
   18.3560   16.2730   22.4730 C   0  0  0  0  0  3  0  0  0  0  0  0
   18.3260   14.9490   21.7200 C   0  0  0  0  0  2  0  0  0  0  0  0
   19.7380   14.6770   21.4950 C   0  0  0  0  0  2  0  0  0  0  0  0
   20.5720   15.5260   22.4550 C   0  0  0  0  0  3  0  0  0  0  0  0
   21.5770   14.7120   23.0420 O   0  0  0  0  0  1  0  0  0  0  0  0
   19.4700   15.2810   24.7400 C   0  0  0  0  0  1  0  0  0  0  0  0
  1  2  2  0
  1 11  1  0
  2  3  1  0
  3  4  1  0
  3  5  2  0
  5  6  1  0
  6 11  2  0
  6  7  1  0
  7  8  1  0
  9  8  1  0
  9 10  1  0
  9 15  1  0
 10 11  1  0
 10 12  1  0
 12 13  1  0
 13 14  1  0
 14 18  1  0
 14 20  1  1
 14 15  1  0
 15 16  1  0
 16 17  1  0
 17 18  1  0
 18 19  1  0
M  RAD  8   1   2   2   2   4   2   5   2   7   3   8   3   9   2  10   2
M  RAD  8  12   3  13   3  15   2  16   3  17   3  18   2  19   2  20   2
M  END
>  <Name>  (9) 
UNK

>  <Chain>  (9) 
D

>  <ResNr>  (9) 
1

$$$$
UNK:D:1
     RDKit          3D

 20 23  0  0  1  0  0  0  0  0999 V2000
   17.0960   19.6930   25.4070 C   0  0  0  0  0  3  0  0  0  0  0  0
   15.9100   20.3110   25.8390 C   0  0  0  0  0  3  0  0  0  0  0  0
   14.6670   19.8490   25.3550 C   0  0  0  0  0  0  0  0  0  0  0  0
   13.4640   20.4270   25.7170 O   0  0  0  0  0  1  0  0  0  0  0  0
   14.7110   18.8120   24.3830 C   0  0  0  0  0  3  0  0  0  0  0  0
   15.9240   18.2130   24.0190 C   0  0  0  0  0  0  0  0  0  0  0  0
   15.8840   17.1830   22.9230 C   0  0  0  0  0  2  0  0  0  0  0  0
   17.2790   16.9390   22.2650 C   0  0  0  0  0  2  0  0  0  0  0  0
   18.2870   16.7180   23.3360 C   0  0  0  0  0  3  0  0  0  0  0  0
   18.5030   18.0690   24.1120 C   0  0  0  0  0  3  0  0  0  0  0  0
   17.1680   18.6050   24.5820 C   0  0  0  0  0  0  0  0  0  0  0  0
   19.5540   17.7980   25.2630 C   0  0  0  0  0  2  0  0  0  0  0  0
   20.9210   17.1130   24.7390 C   0  0  0  0  0  2  0  0  0  0  0  0
   20.7540   15.8990   23.8150 C   0  0  1  0  0  0  0  0  0  0  0  0
   19.6680   16.2980   22.7600 C   0  0  0  0  0  3  0  0  0  0  0  0
   19.7910   15.2790   21.6260 C   0  0  0  0  0  2  0  0  0  0  0  0
   21.0480   14.3880   21.9740 C   0  0  0  0  0  2  0  0  0  0  0  0
   21.9020   15.2450   22.9190 C   0  0  0  0  0  3  0  0  0  0  0  0
   22.8350   14.3590   23.5530 O   0  0  0  0  0  1  0  0  0  0  0  0
   20.2350   14.7990   24.8390 C   0  0  0  0  0  1  0  0  0  0  0  0
  1  2  2  0
  1 11  1  0
  2  3  1  0
  3  4  1  0
  3  5  2  0
  5  6  1  0
  6 11  2  0
  6  7  1  0
  7  8  1  0
  9  8  1  0
  9 10  1  0
  9 15  1  0
 10 11  1  0
 10 12  1  0
 12 13  1  0
 13 14  1  0
 14 18  1  0
 14 20  1  1
 14 15  1  0
 15 16  1  0
 16 17  1  0
 17 18  1  0
 18 19  1  0
M  RAD  8   1   2   2   2   4   2   5   2   7   3   8   3   9   2  10   2
M  RAD  8  12   3  13   3  15   2  16   3  17   3  18   2  19   2  20   2
M  END
>  <Name>  (10) 
UNK

>  <Chain>  (10) 
D

>  <ResNr>  (10) 
1

$$$$
UNK:D:1
     RDKit          3D

 20 23  0  0  1  0  0  0  0  0999 V2000
   17.2950   20.0520   25.1630 C   0  0  0  0  0  3  0  0  0  0  0  0
   16.0910   20.5890   25.6390 C   0  0  0  0  0  3  0  0  0  0  0  0
   14.8350   19.9700   25.3030 C   0  0  0  0  0  0  0  0  0  0  0  0
   13.6730   20.6210   25.6420 O   0  0  0  0  0  1  0  0  0  0  0  0
   14.8570   18.7800   24.5040 C   0  0  0  0  0  3  0  0  0  0  0  0
   16.0850   18.2030   23.9890 C   0  0  0  0  0  0  0  0  0  0  0  0
   15.9400   17.0860   23.1000 C   0  0  0  0  0  2  0  0  0  0  0  0
   17.2130   16.9810   22.2740 C   0  0  0  0  0  2  0  0  0  0  0  0
   18.4290   16.9640   23.2170 C   0  0  0  0  0  3  0  0  0  0  0  0
   18.6610   18.3280   23.8110 C   0  0  0  0  0  3  0  0  0  0  0  0
   17.3140   18.8800   24.3390 C   0  0  0  0  0  0  0  0  0  0  0  0
   19.6760   18.2350   24.9090 C   0  0  0  0  0  2  0  0  0  0  0  0
   21.0060   17.6700   24.3920 C   0  0  0  0  0  2  0  0  0  0  0  0
   20.8360   16.2800   23.6910 C   0  0  1  0  0  0  0  0  0  0  0  0
   19.7090   16.4020   22.5940 C   0  0  0  0  0  3  0  0  0  0  0  0
   19.8420   15.1730   21.6400 C   0  0  0  0  0  2  0  0  0  0  0  0
   21.2900   14.7110   21.7800 C   0  0  0  0  0  2  0  0  0  0  0  0
   21.9510   15.7040   22.7830 C   0  0  0  0  0  3  0  0  0  0  0  0
   22.9420   15.1670   23.5680 O   0  0  0  0  0  1  0  0  0  0  0  0
   20.5070   15.3390   24.8660 C   0  0  0  0  0  1  0  0  0  0  0  0
  1  2  2  0
  1 11  1  0
  2  3  1  0
  3  4  1  0
  3  5  2  0
  5  6  1  0
  6 11  2  0
  6  7  1  0
  7  8  1  0
  9  8  1  0
  9 10  1  0
  9 15  1  0
 10 11  1  0
 10 12  1  0
 12 13  1  0
 13 14  1  0
 14 18  1  0
 14 20  1  1
 14 15  1  0
 15 16  1  0
 16 17  1  0
 17 18  1  0
 18 19  1  0
M  RAD  8   1   2   2   2   4   2   5   2   7   3   8   3   9   2  10   2
M  RAD  8  12   3  13   3  15   2  16   3  17   3  18   2  19   2  20   2
M  END
>  <Name>  (11) 
UNK

>  <Chain>  (11) 
D

>  <ResNr>  (11) 
1

$$$$
UNK:D:1
     RDKit          3D

 20 23  0  0  1  0  0  0  0  0999 V2000
   17.4010   20.5150   24.7500 C   0  0  0  0  0  3  0  0  0  0  0  0
   16.2530   20.9600   25.3930 C   0  0  0  0  0  3  0  0  0  0  0  0
   15.0800   20.2530   25.2990 C   0  0  0  0  0  0  0  0  0  0  0  0
   13.9640   20.7120   25.9900 O   0  0  0  0  0  1  0  0  0  0  0  0
   14.9740   19.1990   24.4090 C   0  0  0  0  0  3  0  0  0  0  0  0
   16.1350   18.6710   23.7940 C   0  0  0  0  0  0  0  0  0  0  0  0
   15.9710   17.5280   22.8720 C   0  0  0  0  0  2  0  0  0  0  0  0
   17.2220   17.2560   22.0730 C   0  0  0  0  0  2  0  0  0  0  0  0
   18.4170   17.2820   22.9860 C   0  0  0  0  0  3  0  0  0  0  0  0
   18.6320   18.6620   23.4570 C   0  0  0  0  0  3  0  0  0  0  0  0
   17.3350   19.3120   24.0070 C   0  0  0  0  0  0  0  0  0  0  0  0
   19.7520   18.6670   24.5230 C   0  0  0  0  0  2  0  0  0  0  0  0
   21.0640   17.9870   24.0780 C   0  0  0  0  0  2  0  0  0  0  0  0
   20.7650   16.5300   23.6120 C   0  0  1  0  0  0  0  0  0  0  0  0
   19.7180   16.6030   22.4470 C   0  0  0  0  0  3  0  0  0  0  0  0
   19.7620   15.2330   21.8460 C   0  0  0  0  0  2  0  0  0  0  0  0
   21.2110   14.7710   22.0000 C   0  0  0  0  0  2  0  0  0  0  0  0
   21.9100   15.9070   22.8140 C   0  0  0  0  0  3  0  0  0  0  0  0
   23.0090   15.2260   23.4760 O   0  0  0  0  0  1  0  0  0  0  0  0
   20.4060   15.6760   24.8080 C   0  0  0  0  0  1  0  0  0  0  0  0
  1  2  2  0
  1 11  1  0
  2  3  1  0
  3  4  1  0
  3  5  2  0
  5  6  1  0
  6 11  2  0
  6  7  1  0
  7  8  1  0
  9  8  1  0
  9 10  1  0
  9 15  1  0
 10 11  1  0
 10 12  1  0
 12 13  1  0
 13 14  1  0
 14 18  1  0
 14 20  1  1
 14 15  1  0
 15 16  1  0
 16 17  1  0
 17 18  1  0
 18 19  1  0
M  RAD  8   1   2   2   2   4   2   5   2   7   3   8   3   9   2  10   2
M  RAD  8  12   3  13   3  15   2  16   3  17   3  18   2  19   2  20   2
M  END
>  <Name>  (12) 
UNK

>  <Chain>  (12) 
D

>  <ResNr>  (12) 
1

$$$$
UNK:D:1
     RDKit          3D

 20 23  0  0  1  0  0  0  0  0999 V2000
   17.1010   20.4800   25.4500 C   0  0  0  0  0  3  0  0  0  0  0  0
   15.7980   20.9380   25.8070 C   0  0  0  0  0  3  0  0  0  0  0  0
   14.7090   20.2490   25.2970 C   0  0  0  0  0  0  0  0  0  0  0  0
   13.4920   20.6650   25.6060 O   0  0  0  0  0  1  0  0  0  0  0  0
   14.8120   19.1630   24.3710 C   0  0  0  0  0  3  0  0  0  0  0  0
   16.1700   18.7760   23.9950 C   0  0  0  0  0  0  0  0  0  0  0  0
   16.2050   17.6620   23.0390 C   0  0  0  0  0  2  0  0  0  0  0  0
   17.5800   17.6630   22.3550 C   0  0  0  0  0  2  0  0  0  0  0  0
   18.6810   17.5850   23.4770 C   0  0  0  0  0  3  0  0  0  0  0  0
   18.6970   18.9980   24.1450 C   0  0  0  0  0  3  0  0  0  0  0  0
   17.3050   19.4890   24.5120 C   0  0  0  0  0  0  0  0  0  0  0  0
   19.7240   18.8280   25.3190 C   0  0  0  0  0  2  0  0  0  0  0  0
   21.0390   18.1420   25.0290 C   0  0  0  0  0  2  0  0  0  0  0  0
   21.0440   16.8690   24.1490 C   0  0  1  0  0  0  0  0  0  0  0  0
   20.0540   17.2100   22.9320 C   0  0  0  0  0  3  0  0  0  0  0  0
   20.2740   16.1020   21.9910 C   0  0  0  0  0  2  0  0  0  0  0  0
   21.7820   15.6870   22.1990 C   0  0  0  0  0  2  0  0  0  0  0  0
   22.2750   16.4890   23.3140 C   0  0  0  0  0  3  0  0  0  0  0  0
   23.3050   15.8720   24.0420 O   0  0  0  0  0  1  0  0  0  0  0  0
   20.5530   15.6400   25.0150 C   0  0  0  0  0  1  0  0  0  0  0  0
  1  2  2  0
  1 11  1  0
  2  3  1  0
  3  4  1  0
  3  5  2  0
  5  6  1  0
  6 11  2  0
  6  7  1  0
  7  8  1  0
  9  8  1  0
  9 10  1  0
  9 15  1  0
 10 11  1  0
 10 12  1  0
 12 13  1  0
 13 14  1  0
 14 18  1  0
 14 20  1  1
 14 15  1  0
 15 16  1  0
 16 17  1  0
 17 18  1  0
 18 19  1  0
M  RAD  8   1   2   2   2   4   2   5   2   7   3   8   3   9   2  10   2
M  RAD  8  12   3  13   3  15   2  16   3  17   3  18   2  19   2  20   2
M  END
>  <Name>  (13) 
UNK

>  <Chain>  (13) 
D

>  <ResNr>  (13) 
1

$$$$
UNK:D:1
     RDKit          3D

 20 23  0  0  1  0  0  0  0  0999 V2000
   16.6550   19.8290   25.1290 C   0  0  0  0  0  3  0  0  0  0  0  0
   15.4670   20.3600   25.5440 C   0  0  0  0  0  3  0  0  0  0  0  0
   14.2460   19.7470   25.2370 C   0  0  0  0  0  0  0  0  0  0  0  0
   13.1450   20.2180   25.8910 O   0  0  0  0  0  1  0  0  0  0  0  0
   14.2590   18.6900   24.3820 C   0  0  0  0  0  3  0  0  0  0  0  0
   15.4630   18.1440   23.9130 C   0  0  0  0  0  0  0  0  0  0  0  0
   15.4300   16.9250   23.0980 C   0  0  0  0  0  2  0  0  0  0  0  0
   16.7050   16.6750   22.2910 C   0  0  0  0  0  2  0  0  0  0  0  0
   17.8640   16.7320   23.2910 C   0  0  0  0  0  3  0  0  0  0  0  0
   18.0890   18.2040   23.7250 C   0  0  0  0  0  3  0  0  0  0  0  0
   16.7260   18.6930   24.2880 C   0  0  0  0  0  0  0  0  0  0  0  0
   19.1950   18.3620   24.7620 C   0  0  0  0  0  2  0  0  0  0  0  0
   20.4660   17.7860   24.1830 C   0  0  0  0  0  2  0  0  0  0  0  0
   20.3090   16.3030   23.6400 C   0  0  1  0  0  0  0  0  0  0  0  0
   19.1190   16.1600   22.7190 C   0  0  0  0  0  3  0  0  0  0  0  0
   19.2710   14.7530   22.0710 C   0  0  0  0  0  2  0  0  0  0  0  0
   20.7440   14.5820   21.9780 C   0  0  0  0  0  2  0  0  0  0  0  0
   21.4320   15.6920   22.7700 C   0  0  0  0  0  3  0  0  0  0  0  0
   22.6420   15.3030   23.4560 O   0  0  0  0  0  1  0  0  0  0  0  0
   20.2190   15.3820   24.8870 C   0  0  0  0  0  1  0  0  0  0  0  0
  1  2  2  0
  1 11  1  0
  2  3  1  0
  3  4  1  0
  3  5  2  0
  5  6  1  0
  6 11  2  0
  6  7  1  0
  7  8  1  0
  9  8  1  0
  9 10  1  0
  9 15  1  0
 10 11  1  0
 10 12  1  0
 12 13  1  0
 13 14  1  0
 14 18  1  0
 14 20  1  1
 14 15  1  0
 15 16  1  0
 16 17  1  0
 17 18  1  0
 18 19  1  0
M  RAD  8   1   2   2   2   4   2   5   2   7   3   8   3   9   2  10   2
M  RAD  8  12   3  13   3  15   2  16   3  17   3  18   2  19   2  20   2
M  END
>  <Name>  (14) 
UNK

>  <Chain>  (14) 
D

>  <ResNr>  (14) 
1

$$$$
UNK:D:1
     RDKit          3D

 20 23  0  0  1  0  0  0  0  0999 V2000
   16.8820   20.4220   25.1440 C   0  0  0  0  0  3  0  0  0  0  0  0
   15.6030   20.8790   25.4860 C   0  0  0  0  0  3  0  0  0  0  0  0
   14.5140   20.1510   25.2370 C   0  0  0  0  0  0  0  0  0  0  0  0
   13.3430   20.5010   25.7730 O   0  0  0  0  0  1  0  0  0  0  0  0
   14.5800   18.9250   24.5080 C   0  0  0  0  0  3  0  0  0  0  0  0
   15.8730   18.4320   24.1290 C   0  0  0  0  0  0  0  0  0  0  0  0
   15.8410   17.1690   23.3310 C   0  0  0  0  0  2  0  0  0  0  0  0
   17.0890   17.0760   22.5120 C   0  0  0  0  0  2  0  0  0  0  0  0
   18.2490   17.2010   23.4360 C   0  0  0  0  0  3  0  0  0  0  0  0
   18.3240   18.7780   23.7600 C   0  0  0  0  0  3  0  0  0  0  0  0
   17.0340   19.2040   24.3970 C   0  0  0  0  0  0  0  0  0  0  0  0
   19.5290   18.9950   24.6910 C   0  0  0  0  0  2  0  0  0  0  0  0
   20.7690   18.4470   24.0530 C   0  0  0  0  0  2  0  0  0  0  0  0
   20.6960   16.9200   23.7630 C   0  0  1  0  0  0  0  0  0  0  0  0
   19.5050   16.5690   22.8600 C   0  0  0  0  0  3  0  0  0  0  0  0
   19.7390   15.1540   22.3100 C   0  0  0  0  0  2  0  0  0  0  0  0
   21.2100   15.0380   22.2550 C   0  0  0  0  0  2  0  0  0  0  0  0
   21.8180   16.2690   22.9020 C   0  0  0  0  0  3  0  0  0  0  0  0
   22.8850   15.8660   23.7760 O   0  0  0  0  0  1  0  0  0  0  0  0
   20.5210   16.1190   25.0990 C   0  0  0  0  0  1  0  0  0  0  0  0
  1  2  2  0
  1 11  1  0
  2  3  1  0
  3  4  1  0
  3  5  2  0
  5  6  1  0
  6 11  2  0
  6  7  1  0
  7  8  1  0
  9  8  1  0
  9 10  1  0
  9 15  1  0
 10 11  1  0
 10 12  1  0
 12 13  1  0
 13 14  1  0
 14 18  1  0
 14 20  1  1
 14 15  1  0
 15 16  1  0
 16 17  1  0
 17 18  1  0
 18 19  1  0
M  RAD  8   1   2   2   2   4   2   5   2   7   3   8   3   9   2  10   2
M  RAD  8  12   3  13   3  15   2  16   3  17   3  18   2  19   2  20   2
M  END
>  <Name>  (15) 
UNK

>  <Chain>  (15) 
D

>  <ResNr>  (15) 
1

$$$$
UNK:D:1
     RDKit          3D

 20 23  0  0  1  0  0  0  0  0999 V2000
   17.0890   19.9380   25.0110 C   0  0  0  0  0  3  0  0  0  0  0  0
   15.9090   20.5900   25.3200 C   0  0  0  0  0  3  0  0  0  0  0  0
   14.7050   19.9560   24.9510 C   0  0  0  0  0  0  0  0  0  0  0  0
   13.4680   20.5180   25.3370 O   0  0  0  0  0  1  0  0  0  0  0  0
   14.6050   18.8760   24.1740 C   0  0  0  0  0  3  0  0  0  0  0  0
   15.8050   18.2320   23.7540 C   0  0  0  0  0  0  0  0  0  0  0  0
   15.6920   17.0100   22.8490 C   0  0  0  0  0  2  0  0  0  0  0  0
   16.9420   16.7130   22.0960 C   0  0  0  0  0  2  0  0  0  0  0  0
   18.1200   16.7650   23.0850 C   0  0  0  0  0  3  0  0  0  0  0  0
   18.3470   18.1730   23.6050 C   0  0  0  0  0  3  0  0  0  0  0  0
   17.0620   18.7750   24.1420 C   0  0  0  0  0  0  0  0  0  0  0  0
   19.5040   18.0890   24.6690 C   0  0  0  0  0  2  0  0  0  0  0  0
   20.7890   17.4960   24.1140 C   0  0  0  0  0  2  0  0  0  0  0  0
   20.4760   16.1000   23.5200 C   0  0  1  0  0  0  0  0  0  0  0  0
   19.3810   16.2130   22.4460 C   0  0  0  0  0  3  0  0  0  0  0  0
   19.4220   14.8880   21.6030 C   0  0  0  0  0  2  0  0  0  0  0  0
   20.9080   14.5250   21.5780 C   0  0  0  0  0  2  0  0  0  0  0  0
   21.6160   15.3790   22.7300 C   0  0  0  0  0  3  0  0  0  0  0  0
   22.4860   14.5470   23.5470 O   0  0  0  0  0  1  0  0  0  0  0  0
   20.0530   15.1320   24.6650 C   0  0  0  0  0  1  0  0  0  0  0  0
  1  2  2  0
  1 11  1  0
  2  3  1  0
  3  4  1  0
  3  5  2  0
  5  6  1  0
  6 11  2  0
  6  7  1  0
  7  8  1  0
  9  8  1  0
  9 10  1  0
  9 15  1  0
 10 11  1  0
 10 12  1  0
 12 13  1  0
 13 14  1  0
 14 18  1  0
 14 20  1  1
 14 15  1  0
 15 16  1  0
 16 17  1  0
 17 18  1  0
 18 19  1  0
M  RAD  8   1   2   2   2   4   2   5   2   7   3   8   3   9   2  10   2
M  RAD  8  12   3  13   3  15   2  16   3  17   3  18   2  19   2  20   2
M  END
>  <Name>  (16) 
UNK

>  <Chain>  (16) 
D

>  <ResNr>  (16) 
1

$$$$
UNK:D:1
     RDKit          3D

 20 23  0  0  1  0  0  0  0  0999 V2000
   17.0910   19.5770   24.8760 C   0  0  0  0  0  3  0  0  0  0  0  0
   15.8410   20.1220   25.2900 C   0  0  0  0  0  3  0  0  0  0  0  0
   14.6800   19.4930   24.9420 C   0  0  0  0  0  0  0  0  0  0  0  0
   13.4320   20.0570   25.2110 O   0  0  0  0  0  1  0  0  0  0  0  0
   14.7160   18.4720   23.9990 C   0  0  0  0  0  3  0  0  0  0  0  0
   15.9440   17.8720   23.6370 C   0  0  0  0  0  0  0  0  0  0  0  0
   15.8700   16.6440   22.7540 C   0  0  0  0  0  2  0  0  0  0  0  0
   17.2970   16.3680   22.0510 C   0  0  0  0  0  2  0  0  0  0  0  0
   18.3560   16.3640   23.1790 C   0  0  0  0  0  3  0  0  0  0  0  0
   18.5210   17.7670   23.7350 C   0  0  0  0  0  3  0  0  0  0  0  0
   17.1780   18.4110   24.0600 C   0  0  0  0  0  0  0  0  0  0  0  0
   19.5350   17.7820   24.8930 C   0  0  0  0  0  2  0  0  0  0  0  0
   20.9490   17.0460   24.5420 C   0  0  0  0  0  2  0  0  0  0  0  0
   20.7070   15.5940   23.9960 C   0  0  1  0  0  0  0  0  0  0  0  0
   19.6900   15.6550   22.8220 C   0  0  0  0  0  3  0  0  0  0  0  0
   19.6560   14.3760   22.1830 C   0  0  0  0  0  2  0  0  0  0  0  0
   21.0910   14.0940   22.1130 C   0  0  0  0  0  2  0  0  0  0  0  0
   21.8770   14.9200   23.2480 C   0  0  0  0  0  3  0  0  0  0  0  0
   22.7100   14.0990   24.0690 O   0  0  0  0  0  1  0  0  0  0  0  0
   20.1530   14.7670   25.1930 C   0  0  0  0  0  1  0  0  0  0  0  0
  1  2  2  0
  1 11  1  0
  2  3  1  0
  3  4  1  0
  3  5  2  0
  5  6  1  0
  6 11  2  0
  6  7  1  0
  7  8  1  0
  9  8  1  0
  9 10  1  0
  9 15  1  0
 10 11  1  0
 10 12  1  0
 12 13  1  0
 13 14  1  0
 14 18  1  0
 14 20  1  1
 14 15  1  0
 15 16  1  0
 16 17  1  0
 17 18  1  0
 18 19  1  0
M  RAD  8   1   2   2   2   4   2   5   2   7   3   8   3   9   2  10   2
M  RAD  8  12   3  13   3  15   2  16   3  17   3  18   2  19   2  20   2
M  END
>  <Name>  (17) 
UNK

>  <Chain>  (17) 
D

>  <ResNr>  (17) 
1

$$$$
UNK:D:1
     RDKit          3D

 20 23  0  0  1  0  0  0  0  0999 V2000
   17.5750   19.8130   25.1640 C   0  0  0  0  0  3  0  0  0  0  0  0
   16.3750   20.4960   25.5240 C   0  0  0  0  0  3  0  0  0  0  0  0
   15.1670   20.1370   24.9580 C   0  0  0  0  0  0  0  0  0  0  0  0
   13.9620   20.7010   25.2720 O   0  0  0  0  0  1  0  0  0  0  0  0
   15.1210   18.9590   24.1340 C   0  0  0  0  0  3  0  0  0  0  0  0
   16.2780   18.2670   23.8270 C   0  0  0  0  0  0  0  0  0  0  0  0
   16.1550   17.0490   22.9650 C   0  0  0  0  0  2  0  0  0  0  0  0
   17.4410   16.5220   22.4290 C   0  0  0  0  0  2  0  0  0  0  0  0
   18.4940   16.4850   23.5020 C   0  0  0  0  0  3  0  0  0  0  0  0
   18.8770   17.9370   23.9450 C   0  0  0  0  0  3  0  0  0  0  0  0
   17.5660   18.7390   24.2830 C   0  0  0  0  0  0  0  0  0  0  0  0
   19.9920   18.0350   24.9380 C   0  0  0  0  0  2  0  0  0  0  0  0
   21.1270   17.0690   24.5380 C   0  0  0  0  0  2  0  0  0  0  0  0
   20.7930   15.6430   23.9950 C   0  0  1  0  0  0  0  0  0  0  0  0
   19.6750   15.7180   22.9270 C   0  0  0  0  0  3  0  0  0  0  0  0
   19.5800   14.3590   22.1640 C   0  0  0  0  0  2  0  0  0  0  0  0
   20.9550   13.6890   22.3810 C   0  0  0  0  0  2  0  0  0  0  0  0
   21.8190   14.7790   23.1740 C   0  0  0  0  0  3  0  0  0  0  0  0
   22.8670   14.2420   23.9260 O   0  0  0  0  0  1  0  0  0  0  0  0
   20.3570   14.8580   25.2260 C   0  0  0  0  0  1  0  0  0  0  0  0
  1  2  2  0
  1 11  1  0
  2  3  1  0
  3  4  1  0
  3  5  2  0
  5  6  1  0
  6 11  2  0
  6  7  1  0
  7  8  1  0
  9  8  1  0
  9 10  1  0
  9 15  1  0
 10 11  1  0
 10 12  1  0
 12 13  1  0
 13 14  1  0
 14 18  1  0
 14 20  1  1
 14 15  1  0
 15 16  1  0
 16 17  1  0
 17 18  1  0
 18 19  1  0
M  RAD  8   1   2   2   2   4   2   5   2   7   3   8   3   9   2  10   2
M  RAD  8  12   3  13   3  15   2  16   3  17   3  18   2  19   2  20   2
M  END
>  <Name>  (18) 
UNK

>  <Chain>  (18) 
D

>  <ResNr>  (18) 
1

$$$$
UNK:D:1
     RDKit          3D

 20 23  0  0  1  0  0  0  0  0999 V2000
   17.1930   20.1150   25.4370 C   0  0  0  0  0  3  0  0  0  0  0  0
   15.9710   20.7750   25.7080 C   0  0  0  0  0  3  0  0  0  0  0  0
   14.7870   20.3030   25.1540 C   0  0  0  0  0  0  0  0  0  0  0  0
   13.6090   20.8310   25.5620 O   0  0  0  0  0  1  0  0  0  0  0  0
   14.7880   19.1740   24.3560 C   0  0  0  0  0  3  0  0  0  0  0  0
   15.9750   18.5250   24.0920 C   0  0  0  0  0  0  0  0  0  0  0  0
   15.8860   17.3250   23.2080 C   0  0  0  0  0  2  0  0  0  0  0  0
   17.1830   16.9360   22.5000 C   0  0  0  0  0  2  0  0  0  0  0  0
   18.2950   16.9840   23.5880 C   0  0  0  0  0  3  0  0  0  0  0  0
   18.5250   18.4460   24.0360 C   0  0  0  0  0  3  0  0  0  0  0  0
   17.1810   19.0570   24.5000 C   0  0  0  0  0  0  0  0  0  0  0  0
   19.6840   18.5740   24.9900 C   0  0  0  0  0  2  0  0  0  0  0  0
   20.9490   17.8260   24.7160 C   0  0  0  0  0  2  0  0  0  0  0  0
   20.7210   16.4030   24.2000 C   0  0  1  0  0  0  0  0  0  0  0  0
   19.6220   16.3860   23.0950 C   0  0  0  0  0  3  0  0  0  0  0  0
   19.7260   15.0160   22.3720 C   0  0  0  0  0  2  0  0  0  0  0  0
   21.1800   14.6570   22.4960 C   0  0  0  0  0  2  0  0  0  0  0  0
   21.8090   15.7770   23.3280 C   0  0  0  0  0  3  0  0  0  0  0  0
   22.9240   15.3880   24.0800 O   0  0  0  0  0  1  0  0  0  0  0  0
   20.4780   15.5350   25.5270 C   0  0  0  0  0  1  0  0  0  0  0  0
  1  2  2  0
  1 11  1  0
  2  3  1  0
  3  4  1  0
  3  5  2  0
  5  6  1  0
  6 11  2  0
  6  7  1  0
  7  8  1  0
  9  8  1  0
  9 10  1  0
  9 15  1  0
 10 11  1  0
 10 12  1  0
 12 13  1  0
 13 14  1  0
 14 18  1  0
 14 20  1  1
 14 15  1  0
 15 16  1  0
 16 17  1  0
 17 18  1  0
 18 19  1  0
M  RAD  8   1   2   2   2   4   2   5   2   7   3   8   3   9   2  10   2
M  RAD  8  12   3  13   3  15   2  16   3  17   3  18   2  19   2  20   2
M  END
>  <Name>  (19) 
UNK

>  <Chain>  (19) 
D

>  <ResNr>  (19) 
1

$$$$
UNK:D:1
     RDKit          3D

 20 23  0  0  1  0  0  0  0  0999 V2000
   18.2360   20.4050   24.9840 C   0  0  0  0  0  3  0  0  0  0  0  0
   17.1650   21.2150   25.3130 C   0  0  0  0  0  3  0  0  0  0  0  0
   15.8050   20.7730   25.0150 C   0  0  0  0  0  0  0  0  0  0  0  0
   14.7520   21.6550   25.1410 O   0  0  0  0  0  1  0  0  0  0  0  0
   15.6120   19.5460   24.3900 C   0  0  0  0  0  3  0  0  0  0  0  0
   16.7560   18.7600   24.0680 C   0  0  0  0  0  0  0  0  0  0  0  0
   16.4930   17.5730   23.2510 C   0  0  0  0  0  2  0  0  0  0  0  0
   17.7080   17.1460   22.4170 C   0  0  0  0  0  2  0  0  0  0  0  0
   18.9740   17.0180   23.3780 C   0  0  0  0  0  3  0  0  0  0  0  0
   19.3630   18.3650   24.0080 C   0  0  0  0  0  3  0  0  0  0  0  0
   18.1200   19.1590   24.4340 C   0  0  0  0  0  0  0  0  0  0  0  0
   20.2990   18.0980   25.1840 C   0  0  0  0  0  2  0  0  0  0  0  0
   21.5430   17.2380   24.7490 C   0  0  0  0  0  2  0  0  0  0  0  0
   21.2100   15.9490   23.9410 C   0  0  1  0  0  0  0  0  0  0  0  0
   20.1750   16.2750   22.7820 C   0  0  0  0  0  3  0  0  0  0  0  0
   20.1850   15.0880   21.8450 C   0  0  0  0  0  2  0  0  0  0  0  0
   21.5640   14.5010   21.9650 C   0  0  0  0  0  2  0  0  0  0  0  0
   22.3200   15.3340   23.0460 C   0  0  0  0  0  3  0  0  0  0  0  0
   23.1990   14.4460   23.7630 O   0  0  0  0  0  1  0  0  0  0  0  0
   20.5830   14.8280   24.9680 C   0  0  0  0  0  1  0  0  0  0  0  0
  1  2  2  0
  1 11  1  0
  2  3  1  0
  3  4  1  0
  3  5  2  0
  5  6  1  0
  6 11  2  0
  6  7  1  0
  7  8  1  0
  9  8  1  0
  9 10  1  0
  9 15  1  0
 10 11  1  0
 10 12  1  0
 12 13  1  0
 13 14  1  0
 14 18  1  0
 14 20  1  1
 14 15  1  0
 15 16  1  0
 16 17  1  0
 17 18  1  0
 18 19  1  0
M  RAD  8   1   2   2   2   4   2   5   2   7   3   8   3   9   2  10   2
M  RAD  8  12   3  13   3  15   2  16   3  17   3  18   2  19   2  20   2
M  END
>  <Name>  (20) 
UNK

>  <Chain>  (20) 
D

>  <ResNr>  (20) 
1

$$$$
