
     RDKit          3D

 24 24  0  0  0  0  0  0  0  0999 V2000
   -3.7883   -0.6144   -2.2170 O   0  0  0  0  0  0  0  0  0  0  0  0
   -2.7041   -0.1351   -1.7957 C   0  0  0  0  0  0  0  0  0  0  0  0
   -1.9593    0.6326   -2.6782 O   0  0  0  0  0  1  0  0  0  0  0  0
   -2.2371   -0.3818   -0.4024 C   0  0  2  0  0  0  0  0  0  0  0  0
   -3.0785    0.3688    0.6078 C   0  0  0  0  0  0  0  0  0  0  0  0
   -2.9761    1.7491    0.4400 O   0  0  0  0  0  0  0  0  0  0  0  0
   -0.8220   -0.0253   -0.2747 N   0  0  0  0  0  0  0  0  0  0  0  0
    0.1614   -0.9910    0.0697 C   0  0  0  0  0  0  0  0  0  0  0  0
   -0.2380   -2.1791    0.2627 O   0  0  0  0  0  0  0  0  0  0  0  0
    1.5799   -0.6923    0.2101 C   0  0  0  0  0  0  0  0  0  0  0  0
    2.4661   -1.6915    0.5472 C   0  0  0  0  0  0  0  0  0  0  0  0
    3.7929   -1.4851    0.6939 N   0  0  0  0  0  0  0  0  0  0  0  0
    4.2854   -0.2597    0.5067 C   0  0  0  0  0  0  0  0  0  0  0  0
    3.4869    0.8055    0.1683 C   0  0  0  0  0  0  0  0  0  0  0  0
    3.9846    2.0906   -0.0307 O   0  0  0  0  0  1  0  0  0  0  0  0
    2.1147    0.5631    0.0226 C   0  0  0  0  0  0  0  0  0  0  0  0
   -2.3884   -1.4613   -0.1968 H   0  0  0  0  0  0  0  0  0  0  0  0
   -2.7581    0.0852    1.6147 H   0  0  0  0  0  0  0  0  0  0  0  0
   -4.1210    0.0272    0.4846 H   0  0  0  0  0  0  0  0  0  0  0  0
   -3.1711    2.1528    1.3252 H   0  0  0  0  0  0  0  0  0  0  0  0
   -0.4924    0.9477   -0.4325 H   0  0  0  0  0  0  0  0  0  0  0  0
    2.0477   -2.6836    0.6960 H   0  0  0  0  0  0  0  0  0  0  0  0
    5.3439   -0.0848    0.6216 H   0  0  0  0  0  0  0  0  0  0  0  0
    1.4708    1.3883   -0.2432 H   0  0  0  0  0  0  0  0  0  0  0  0
  1  2  2  0
  2  3  1  0
  2  4  1  0
  4  5  1  0
  5  6  1  0
  4  7  1  0
  7  8  1  0
  8  9  2  0
  8 10  1  0
 10 11  2  0
 11 12  1  0
 12 13  2  0
 13 14  1  0
 14 15  1  0
 14 16  2  0
 16 10  1  0
  4 17  1  1
  5 18  1  0
  5 19  1  0
  6 20  1  0
  7 21  1  0
 11 22  1  0
 13 23  1  0
 16 24  1  0
M  CHG  2   3  -1  15  -1
M  END
$$$$

     RDKit          3D

 24 24  0  0  0  0  0  0  0  0999 V2000
   -2.6622   -1.2706    2.1803 O   0  0  0  0  0  0  0  0  0  0  0  0
   -2.8811   -0.4308    1.2770 C   0  0  0  0  0  0  0  0  0  0  0  0
   -3.8363    0.5432    1.5064 O   0  0  0  0  0  1  0  0  0  0  0  0
   -2.1521   -0.4723    0.0142 C   0  0  1  0  0  0  0  0  0  0  0  0
   -2.7985    0.3577   -1.0709 C   0  0  0  0  0  0  0  0  0  0  0  0
   -4.1301   -0.0014   -1.2787 O   0  0  0  0  0  0  0  0  0  0  0  0
   -0.7775   -0.0116    0.1405 N   0  0  0  0  0  0  0  0  0  0  0  0
    0.3175   -0.8276   -0.1638 C   0  0  0  0  0  0  0  0  0  0  0  0
    0.0848   -1.9998   -0.5596 O   0  0  0  0  0  0  0  0  0  0  0  0
    1.7022   -0.3872   -0.0447 C   0  0  0  0  0  0  0  0  0  0  0  0
    2.7454   -1.2294   -0.3570 C   0  0  0  0  0  0  0  0  0  0  0  0
    4.0423   -0.8796   -0.2670 N   0  0  0  0  0  0  0  0  0  0  0  0
    4.4040    0.3464    0.1445 C   0  0  0  0  0  0  0  0  0  0  0  0
    3.3876    1.2208    0.4673 C   0  0  0  0  0  0  0  0  0  0  0  0
    3.7471    2.5059    0.8991 O   0  0  0  0  0  1  0  0  0  0  0  0
    2.0525    0.8767    0.3801 C   0  0  0  0  0  0  0  0  0  0  0  0
   -2.1185   -1.5140   -0.3430 H   0  0  0  0  0  0  0  0  0  0  0  0
   -2.7037    1.4421   -0.8494 H   0  0  0  0  0  0  0  0  0  0  0  0
   -2.2633    0.1565   -2.0211 H   0  0  0  0  0  0  0  0  0  0  0  0
   -4.6783    0.6080   -0.6971 H   0  0  0  0  0  0  0  0  0  0  0  0
   -0.6517    0.9655    0.4719 H   0  0  0  0  0  0  0  0  0  0  0  0
    2.4488   -2.2349   -0.6946 H   0  0  0  0  0  0  0  0  0  0  0  0
    5.4424    0.6572    0.2272 H   0  0  0  0  0  0  0  0  0  0  0  0
    1.2787    1.5794    0.6384 H   0  0  0  0  0  0  0  0  0  0  0  0
  1  2  2  0
  2  3  1  0
  2  4  1  0
  4  5  1  0
  5  6  1  0
  4  7  1  0
  7  8  1  0
  8  9  2  0
  8 10  1  0
 10 11  2  0
 11 12  1  0
 12 13  2  0
 13 14  1  0
 14 15  1  0
 14 16  2  0
 16 10  1  0
  4 17  1  6
  5 18  1  0
  5 19  1  0
  6 20  1  0
  7 21  1  0
 11 22  1  0
 13 23  1  0
 16 24  1  0
M  CHG  2   3  -1  15  -1
M  END
$$$$

     RDKit          3D

 20 19  0  0  0  0  0  0  0  0999 V2000
   -2.8616   -0.8623    0.7026 N   0  0  0  0  0  0  0  0  0  0  0  0
   -1.8303    0.1652    0.5201 C   0  0  1  0  0  0  0  0  0  0  0  0
   -0.5310   -0.5754    0.2960 C   0  0  0  0  0  0  0  0  0  0  0  0
    0.8692    0.4599    0.0939 S   0  0  0  0  0  6  0  0  0  0  0  0
    0.7607    1.4235   -1.0252 O   0  0  0  0  0  0  0  0  0  0  0  0
    1.1230    1.2954    1.3421 O   0  0  0  0  0  0  0  0  0  0  0  0
    2.2827   -0.6104   -0.1558 C   0  0  0  0  0  0  0  0  0  0  0  0
    3.4740    0.2503   -0.3282 C   0  0  0  0  0  0  0  0  0  0  0  0
    3.4393    1.5058   -0.2956 O   0  0  0  0  0  0  0  0  0  0  0  0
    4.7028   -0.3772   -0.5387 O   0  0  0  0  0  1  0  0  0  0  0  0
   -2.2039    1.0366   -0.6280 C   0  0  0  0  0  0  0  0  0  0  0  0
   -3.0655    1.9280   -0.5343 O   0  0  0  0  0  0  0  0  0  0  0  0
   -1.5780    0.8469   -1.8313 O   0  0  0  0  0  1  0  0  0  0  0  0
   -3.7279   -0.4954    0.2522 H   0  0  0  0  0  0  0  0  0  0  0  0
   -2.5642   -1.7871    0.3614 H   0  0  0  0  0  0  0  0  0  0  0  0
   -1.7268    0.7223    1.4406 H   0  0  0  0  0  0  0  0  0  0  0  0
   -0.3968   -1.1958    1.2328 H   0  0  0  0  0  0  0  0  0  0  0  0
   -0.6477   -1.3095   -0.5196 H   0  0  0  0  0  0  0  0  0  0  0  0
    2.3641   -1.2548    0.7188 H   0  0  0  0  0  0  0  0  0  0  0  0
    2.1179   -1.1660   -1.1037 H   0  0  0  0  0  0  0  0  0  0  0  0
  1  2  1  0
  2  3  1  0
  3  4  1  0
  4  5  2  0
  4  6  2  0
  4  7  1  0
  7  8  1  0
  8  9  2  0
  8 10  1  0
  2 11  1  0
 11 12  2  0
 11 13  1  0
  1 14  1  0
  1 15  1  0
  2 16  1  1
  3 17  1  0
  3 18  1  0
  7 19  1  0
  7 20  1  0
M  CHG  2  10  -1  13  -1
M  END
$$$$
