@<TRIPOS>MOLECULE
Molecule elastase_2.mol2
     4     0
SMALL
NO_CHARGES
@<TRIPOS>ATOM
      6 ACC        -1.6995    1.7377   -1.3450 HB    5     HB      0.0000
      7 ACC        -1.7963   -1.8827   -2.8994 HB    6     HB      0.0000
      9 AR         -5.1291    1.9117    0.7651 AR    8     AR      0.0000
     10 HYD         0.8742   -0.6313    0.4179 HYD   9     HYD     0.0000
@<TRIPOS>BOND
@<TRIPOS>MOLECULE
elastase_2.mol2
    68    68
SMALL
NO_CHARGES
@<TRIPOS>ATOM
      1 C1         -6.0639    1.4420    1.6852 C.ar  1     <0>1   -0.0568
      2 C2         -5.3277    3.1326    0.1240 C.ar  1     <0>1   -0.0568
      3 C3         -4.9250    0.6871    1.4047 C.ar  1     <0>1   -0.0433
      4 C4         -4.1889    2.3777   -0.1564 C.ar  1     <0>1   -0.0433
      5 C5         -6.2653    2.6648    1.0449 C.ar  1     <0>1   -0.0447
      6 C6         -4.0039    1.1658    0.4880 C.ar  1     <0>1    0.0221
      7 C7         -1.8168    0.7134   -0.6782 C.2   1     <0>1    0.2223
      8 C8         -0.7866   -1.1944   -3.0350 C.2   1     <0>1    0.2187
      9 C9          0.1816   -2.7373   -6.2193 C.2   1     <0>1    0.3052
     10 C10        -8.3801    3.6654    0.1068 C.3   1     <0>1   -0.0587
     11 C11        -7.1452    4.8409    1.9638 C.3   1     <0>1   -0.0587
     12 C12         0.7969   -2.5257    0.7926 C.3   1     <0>1   -0.0626
     13 C13         2.2621   -1.2746   -0.8033 C.3   1     <0>1   -0.0626
     14 C14        -1.3200    0.8987   -5.2657 C.3   1     <0>1   -0.0500
     15 C15        -1.1820    2.2994   -5.8666 C.3   1     <0>1   -0.0406
     16 C16         0.0522    0.3091   -4.9139 C.3   1     <0>1   -0.0289
     17 C17         0.3222   -0.0957    0.3631 C.3   1     <0>1   -0.0266
     18 C18        -2.5462    2.8951   -6.1814 C.3   1     <0>1   -0.0069
     19 C19        -7.4832    3.4716    1.3442 C.3   1     <0>1   -0.0215
     20 C20        -0.7530   -0.3856   -0.6923 C.3   1     <0>1    0.0884
     21 C21        -0.0056   -1.1125   -4.3424 C.3   1     <0>1    0.0880
     22 C22         1.4262   -1.1669    0.4728 C.3   1     <0>1   -0.0449
     23 C23        -0.6632   -3.6403   -7.0691 C.3   1     <0>1    0.4662
     24 N1         -2.8484    0.3998    0.2034 N.am  1     <0>1   -0.2271
     25 N2         -0.2073   -0.4362   -2.0277 N.am  1     <0>1   -0.2456
     26 N3         -0.5707   -2.0475   -5.2806 N.am  1     <0>1   -0.2394
     27 N4         -2.3624    4.2293   -6.8016 N.3   1     <0>1   -0.3300
     28 O1         -1.6995    1.7377   -1.3450 O.2   1     <0>1   -0.2775
     29 O2         -1.7963   -1.8827   -2.8994 O.2   1     <0>1   -0.2778
     30 O3          1.3962   -2.6474   -6.3738 O.2   1     <0>1   -0.2698
     31 F1         -1.9750   -3.5776   -6.7262 F     1     <0>1   -0.1623
     32 F2         -0.2882   -4.9404   -6.9595 F     1     <0>1   -0.1623
     33 F3         -0.5864   -3.3200   -8.3858 F     1     <0>1   -0.1623
     34 H1         -6.8052    1.0720    2.4133 H     1     <0>1    0.0621
     35 H2         -5.4869    4.0995   -0.3824 H     1     <0>1    0.0621
     36 H3         -4.7598   -0.2806    1.9075 H     1     <0>1    0.0633
     37 H4         -3.4437    2.7419   -0.8835 H     1     <0>1    0.0633
     38 H101       -9.2907    4.2686    0.3306 H     1     <0>1    0.0235
     39 H102       -8.6504    2.6851   -0.3506 H     1     <0>1    0.0235
     40 H103       -7.7854    4.2307   -0.6482 H     1     <0>1    0.0235
     41 H111       -8.0558    5.4441    2.1876 H     1     <0>1    0.0235
     42 H112       -6.4357    5.4094    1.3183 H     1     <0>1    0.0235
     43 H113       -6.6292    4.6477    2.9332 H     1     <0>1    0.0235
     44 H121        0.1875   -2.4472    1.7230 H     1     <0>1    0.0232
     45 H122        1.5590   -3.3371    0.8567 H     1     <0>1    0.0232
     46 H123        0.1039   -2.7804   -0.0429 H     1     <0>1    0.0232
     47 H131        2.7203   -0.2852   -1.0362 H     1     <0>1    0.0232
     48 H132        1.6717   -1.6762   -1.6597 H     1     <0>1    0.0232
     49 H133        3.0926   -1.9909   -0.6020 H     1     <0>1    0.0232
     50 H141       -1.8984    0.2203   -5.9353 H     1     <0>1    0.0266
     51 H142       -1.8941    0.9984   -4.3151 H     1     <0>1    0.0266
     52 H151       -0.5171    2.2991   -6.7617 H     1     <0>1    0.0277
     53 H152       -0.7041    2.9480   -5.0957 H     1     <0>1    0.0277
     54 H161        0.6029    0.9870   -4.2208 H     1     <0>1    0.0285
     55 H162        0.6402    0.2589   -5.8599 H     1     <0>1    0.0285
     56 H171       -0.1500    0.0757    1.3585 H     1     <0>1    0.0287
     57 H172        0.8200    0.8577    0.0691 H     1     <0>1    0.0287
     58 H181       -3.2094    2.9319   -5.2858 H     1     <0>1    0.0422
     59 H182       -3.0355    2.2367   -6.9366 H     1     <0>1    0.0422
     60 H19        -8.0780    2.9052    2.0983 H     1     <0>1    0.0343
     61 H20        -1.2367   -1.3630   -0.4598 H     1     <0>1    0.0557
     62 H21         1.0407   -1.4352   -4.1320 H     1     <0>1    0.0557
     63 H22         2.1036   -0.8876    1.3132 H     1     <0>1    0.0296
     64 H1         -2.7609   -0.4855    0.7023 H     1     <0>1    0.1363
     65 H2          0.6323    0.1035   -2.2379 H     1     <0>1    0.1312
     66 H3         -1.5771   -2.2110   -5.2532 H     1     <0>1    0.1314
     67 H41        -3.2769    4.6286   -7.0126 H     1     <0>1    0.1182
     68 H42        -1.7557    4.1957   -7.6209 H     1     <0>1    0.1182
@<TRIPOS>BOND
     1     1     3    ar
     2     1     5    ar
     3     1    34    1 
     4     2     4    ar
     5     2     5    ar
     6     2    35    1 
     7     3     6    ar
     8     3    36    1 
     9     4     6    ar
    10     4    37    1 
    11     5    19    1 
    12     6    24    1 
    13     7    20    1 
    14     7    24    am
    15     7    28    2 
    16     8    21    1 
    17     8    25    am
    18     8    29    2 
    19     9    23    1 
    20     9    26    am
    21     9    30    2 
    22    10    19    1 
    23    10    38    1 
    24    10    39    1 
    25    10    40    1 
    26    11    19    1 
    27    11    41    1 
    28    11    42    1 
    29    11    43    1 
    30    12    22    1 
    31    12    44    1 
    32    12    45    1 
    33    12    46    1 
    34    13    22    1 
    35    13    47    1 
    36    13    48    1 
    37    13    49    1 
    38    14    15    1 
    39    14    16    1 
    40    14    50    1 
    41    14    51    1 
    42    15    18    1 
    43    15    52    1 
    44    15    53    1 
    45    16    21    1 
    46    16    54    1 
    47    16    55    1 
    48    17    20    1 
    49    17    22    1 
    50    17    56    1 
    51    17    57    1 
    52    18    27    1 
    53    18    58    1 
    54    18    59    1 
    55    19    60    1 
    56    20    25    1 
    57    20    61    1 
    58    21    26    1 
    59    21    62    1 
    60    22    63    1 
    61    23    31    1 
    62    23    32    1 
    63    23    33    1 
    64    24    64    1 
    65    25    65    1 
    66    26    66    1 
    67    27    67    1 
    68    27    68    1 
@<TRIPOS>MOLECULE
Molecule elastase_2.mol2
    21     0
SMALL
NO_CHARGES
@<TRIPOS>ATOM
      1 DON        -2.8484    0.3998    0.2034 HB    0     HB      0.0000
      2 DON        -0.2073   -0.4362   -2.0277 HB    1     HB      0.0000
      3 DON        -0.5707   -2.0475   -5.2806 HB    2     HB      0.0000
      4 DON        -2.3624    4.2293   -6.8016 HB    3     HB      0.0000
      5 ACC        -2.3624    4.2293   -6.8016 HB    4     HB      0.0000
      6 ACC        -1.6995    1.7377   -1.3450 HB    5     HB      0.0000
      7 ACC        -1.7963   -1.8827   -2.8994 HB    6     HB      0.0000
      8 ACC         1.3962   -2.6474   -6.3738 HB    7     HB      0.0000
      9 AR         -5.1291    1.9117    0.7651 AR    8     AR      0.0000
     10 HYD         0.8742   -0.6313    0.4179 HYD   9     HYD     0.0000
     11 HYD        -0.6339    0.6039   -5.0898 HYD   10    HYD     0.0000
     12 HYD        -1.2510    1.5991   -5.5661 HYD   11    HYD     0.0000
     13 HYD        -6.8742    3.0682    1.1946 HYD   12    HYD     0.0000
     14 HYD        -7.9317    3.5685    0.7255 HYD   13    HYD     0.0000
     15 HYD        -7.3142    4.1562    1.6540 HYD   14    HYD     0.0000
     16 HYD         1.1115   -1.8463    0.6327 HYD   15    HYD     0.0000
     17 HYD         1.8442   -1.2208   -0.1653 HYD   16    HYD     0.0000
     18 HYD        -8.3801    3.6654    0.1068 HYD   17    HYD     0.0000
     19 HYD        -7.1452    4.8409    1.9638 HYD   18    HYD     0.0000
     20 HYD         0.7969   -2.5257    0.7926 HYD   19    HYD     0.0000
     21 HYD         2.2621   -1.2746   -0.8033 HYD   20    HYD     0.0000
@<TRIPOS>BOND
@<TRIPOS>MOLECULE
elastase_1.mol2
    63    64
SMALL
NO_CHARGES
@<TRIPOS>ATOM
      1 C1         -6.0643    1.4467    1.6810 C.ar  1     <0>1   -0.0568
      2 C2         -5.3234    3.1362    0.1208 C.ar  1     <0>1   -0.0568
      3 C3         -4.9262    0.6901    1.4021 C.ar  1     <0>1   -0.0433
      4 C4         -4.1853    2.3795   -0.1582 C.ar  1     <0>1   -0.0433
      5 C5         -6.2629    2.6699    1.0404 C.ar  1     <0>1   -0.0447
      6 C6         -4.0030    1.1673    0.4865 C.ar  1     <0>1    0.0221
      7 C7         -1.8139    0.7045   -0.6819 C.2   1     <0>1    0.2225
      8 C8         -0.7853   -1.1946   -3.0384 C.2   1     <0>1    0.2214
      9 C9          0.1846   -2.7368   -6.2195 C.2   1     <0>1    0.3052
     10 C10         1.3085    0.8048   -0.3754 C.3   1     <0>1   -0.0379
     11 C11         0.3200   -0.0953    0.3617 C.3   1     <0>1   -0.0275
     12 C12         1.2799    0.2649   -1.7973 C.3   1     <0>1    0.0071
     13 C13        -0.7565   -0.3689   -0.6823 C.3   1     <0>1    0.0910
     14 C14        -8.3800    3.6655    0.1067 C.3   1     <0>1   -0.0587
     15 C15        -7.1452    4.8409    1.9638 C.3   1     <0>1   -0.0587
     16 C16        -1.3242    0.8845   -5.2614 C.3   1     <0>1   -0.0500
     17 C17        -1.1831    2.3000   -5.8670 C.3   1     <0>1   -0.0406
     18 C18         0.0281    0.3242   -4.8842 C.3   1     <0>1   -0.0289
     19 C19        -2.5462    2.8951   -6.1814 C.3   1     <0>1   -0.0069
     20 C20        -7.4832    3.4716    1.3442 C.3   1     <0>1   -0.0215
     21 C21        -0.0078   -1.1104   -4.3489 C.3   1     <0>1    0.0883
     22 C22        -0.6632   -3.6403   -7.0691 C.3   1     <0>1    0.4662
     23 N1         -0.0612   -0.2904   -1.9603 N.am  1     <0>1   -0.2316
     24 N2         -2.8432    0.3881    0.2070 N.am  1     <0>1   -0.2271
     25 N3         -0.5695   -2.0473   -5.2806 N.am  1     <0>1   -0.2394
     26 N4         -2.3625    4.2292   -6.8015 N.3   1     <0>1   -0.3300
     27 O1         -1.6758    1.7232   -1.3512 O.2   1     <0>1   -0.2775
     28 O2         -1.7978   -1.8814   -2.8922 O.2   1     <0>1   -0.2776
     29 O3          1.3993   -2.6455   -6.3727 O.2   1     <0>1   -0.2698
     30 F1         -1.9750   -3.5776   -6.7261 F     1     <0>1   -0.1623
     31 F2         -0.2882   -4.9404   -6.9595 F     1     <0>1   -0.1623
     32 F3         -0.5864   -3.3200   -8.3858 F     1     <0>1   -0.1623
     33 H1         -6.8072    1.0779    2.4080 H     1     <0>1    0.0621
     34 H2         -5.4805    4.1033   -0.3857 H     1     <0>1    0.0621
     35 H3         -4.7632   -0.2777    1.9052 H     1     <0>1    0.0633
     36 H4         -3.4387    2.7426   -0.8843 H     1     <0>1    0.0633
     37 H101        2.3241    0.8504    0.0825 H     1     <0>1    0.0278
     38 H102        0.8898    1.8381   -0.3901 H     1     <0>1    0.0278
     39 H111       -0.0623    0.3258    1.3207 H     1     <0>1    0.0285
     40 H112        0.8335   -1.0588    0.5884 H     1     <0>1    0.0285
     41 H121        2.0991   -0.4568   -2.0239 H     1     <0>1    0.0431
     42 H122        1.3809    1.1290   -2.4947 H     1     <0>1    0.0431
     43 H13        -1.2084   -1.3775   -0.5349 H     1     <0>1    0.0560
     44 H141       -9.2906    4.2687    0.3305 H     1     <0>1    0.0235
     45 H142       -8.6503    2.6852   -0.3508 H     1     <0>1    0.0235
     46 H143       -7.7853    4.2308   -0.6482 H     1     <0>1    0.0235
     47 H151       -8.0558    5.4441    2.1876 H     1     <0>1    0.0235
     48 H152       -6.4357    5.4094    1.3184 H     1     <0>1    0.0235
     49 H153       -6.6292    4.6477    2.9332 H     1     <0>1    0.0235
     50 H161       -1.9214    0.2295   -5.9244 H     1     <0>1    0.0266
     51 H162       -1.8727    1.0031   -4.3029 H     1     <0>1    0.0266
     52 H171       -0.5170    2.2992   -6.7618 H     1     <0>1    0.0277
     53 H172       -0.7040    2.9482   -5.0958 H     1     <0>1    0.0277
     54 H181        0.6482    0.9790   -4.2996 H     1     <0>1    0.0285
     55 H182        0.5996    0.1928   -5.9140 H     1     <0>1    0.0285
     56 H191       -3.2094    2.9318   -5.2858 H     1     <0>1    0.0422
     57 H192       -3.0355    2.2366   -6.9366 H     1     <0>1    0.0422
     58 H20        -8.0767    2.9130    2.0914 H     1     <0>1    0.0343
     59 H21         0.8721   -0.6083   -4.7969 H     1     <0>1    0.0557
     60 H2         -2.7995   -0.5357    0.6274 H     1     <0>1    0.1363
     61 H3         -1.5745   -2.2097   -5.2522 H     1     <0>1    0.1314
     62 H41        -3.2771    4.6284   -7.0126 H     1     <0>1    0.1182
     63 H42        -1.7558    4.1956   -7.6209 H     1     <0>1    0.1182
@<TRIPOS>BOND
     1     1     3    ar
     2     1     5    ar
     3     1    33    1 
     4     2     4    ar
     5     2     5    ar
     6     2    34    1 
     7     3     6    ar
     8     3    35    1 
     9     4     6    ar
    10     4    36    1 
    11     5    20    1 
    12     6    24    1 
    13     7    13    1 
    14     7    24    am
    15     7    27    2 
    16     8    21    1 
    17     8    23    am
    18     8    28    2 
    19     9    22    1 
    20     9    25    am
    21     9    29    2 
    22    10    11    1 
    23    10    12    1 
    24    10    37    1 
    25    10    38    1 
    26    11    13    1 
    27    11    39    1 
    28    11    40    1 
    29    12    23    1 
    30    12    41    1 
    31    12    42    1 
    32    13    23    1 
    33    13    43    1 
    34    14    20    1 
    35    14    44    1 
    36    14    45    1 
    37    14    46    1 
    38    15    20    1 
    39    15    47    1 
    40    15    48    1 
    41    15    49    1 
    42    16    17    1 
    43    16    18    1 
    44    16    50    1 
    45    16    51    1 
    46    17    19    1 
    47    17    52    1 
    48    17    53    1 
    49    18    21    1 
    50    18    54    1 
    51    18    55    1 
    52    19    26    1 
    53    19    56    1 
    54    19    57    1 
    55    20    58    1 
    56    21    25    1 
    57    21    59    1 
    58    22    30    1 
    59    22    31    1 
    60    22    32    1 
    61    24    60    1 
    62    25    61    1 
    63    26    62    1 
    64    26    63    1 
@<TRIPOS>MOLECULE
Molecule elastase_1.mol2
    16     0
SMALL
NO_CHARGES
@<TRIPOS>ATOM
      1 DON        -2.8726    0.3626    0.1500 HB    0     HB      0.0000
      2 DON        -0.5682   -2.0458   -5.2792 HB    1     HB      0.0000
      3 DON        -2.3625    4.2292   -6.8015 HB    2     HB      0.0000
      4 ACC        -2.3625    4.2292   -6.8015 HB    3     HB      0.0000
      5 ACC        -1.6758    1.7232   -1.3512 HB    4     HB      0.0000
      6 ACC        -1.7978   -1.8814   -2.8922 HB    5     HB      0.0000
      7 ACC         1.3993   -2.6455   -6.3727 HB    6     HB      0.0000
      8 AR         -5.1276    1.9149    0.7621 AR    7     AR      0.0000
      9 HYD        -0.6354    0.5890   -5.1043 HYD   8     HYD     0.0000
     10 HYD        -1.2520    1.6000   -5.5666 HYD   9     HYD     0.0000
     11 HYD        -6.8715    3.0742    1.1892 HYD   10    HYD     0.0000
     12 HYD         0.8143    0.3547   -0.0069 HYD   11    HYD     0.0000
     13 HYD        -7.9316    3.5685    0.7255 HYD   12    HYD     0.0000
     14 HYD        -7.3142    4.1562    1.6540 HYD   13    HYD     0.0000
     15 HYD        -8.3800    3.6655    0.1067 HYD   14    HYD     0.0000
     16 HYD        -7.1452    4.8409    1.9638 HYD   15    HYD     0.0000
@<TRIPOS>BOND
@<TRIPOS>MOLECULE
elastase_3.mol2
    69    70
SMALL
NO_CHARGES
@<TRIPOS>ATOM
      1 C1          3.0270   -3.4214    0.7685 C.ar  1     <0>1   -0.0617
      2 C2          3.5520   -2.1625    0.4774 C.ar  1     <0>1   -0.0615
      3 C3          1.6501   -3.5845    0.9224 C.ar  1     <0>1   -0.0615
      4 C4          2.7002   -1.0663    0.3402 C.ar  1     <0>1   -0.0585
      5 C5          0.7984   -2.4883    0.7852 C.ar  1     <0>1   -0.0585
      6 C6         -6.0599    1.4457    1.6916 C.ar  1     <0>1   -0.0568
      7 C7         -5.3321    3.1287    0.1184 C.ar  1     <0>1   -0.0568
      8 C8         -4.9210    0.6909    1.4110 C.ar  1     <0>1   -0.0433
      9 C9         -4.1932    2.3739   -0.1621 C.ar  1     <0>1   -0.0433
     10 C10         1.3341   -1.2429    0.4958 C.ar  1     <0>1   -0.0454
     11 C11        -6.2655    2.6645    1.0454 C.ar  1     <0>1   -0.0447
     12 C12        -4.0035    1.1656    0.4880 C.ar  1     <0>1    0.0221
     13 C13        -1.8214    0.7155   -0.6776 C.2   1     <0>1    0.2226
     14 C14        -0.7866   -1.1944   -3.0349 C.2   1     <0>1    0.2187
     15 C15         0.1816   -2.7373   -6.2193 C.2   1     <0>1    0.3052
     16 C16        -8.3801    3.6655    0.1067 C.3   1     <0>1   -0.0587
     17 C17        -7.1452    4.8409    1.9638 C.3   1     <0>1   -0.0587
     18 C18         0.3585   -0.0707    0.3439 C.3   1     <0>1   -0.0036
     19 C19        -1.3200    0.8987   -5.2657 C.3   1     <0>1   -0.0500
     20 C20        -1.1819    2.2995   -5.8666 C.3   1     <0>1   -0.0406
     21 C21         0.0522    0.3091   -4.9139 C.3   1     <0>1   -0.0289
     22 C22        -2.5462    2.8951   -6.1814 C.3   1     <0>1   -0.0069
     23 C23        -7.4832    3.4716    1.3442 C.3   1     <0>1   -0.0215
     24 C24        -0.7521   -0.3849   -0.6933 C.3   1     <0>1    0.0921
     25 C25         0.0176   -1.0755   -4.2908 C.3   1     <0>1    0.0880
     26 C26        -0.6629   -3.6394   -7.0686 C.3   1     <0>1    0.4662
     27 N1         -2.8428    0.3733    0.2141 N.am  1     <0>1   -0.2271
     28 N2         -0.1155   -0.3839   -2.0693 N.am  1     <0>1   -0.2453
     29 N3         -0.5966   -2.0698   -5.2989 N.am  1     <0>1   -0.2394
     30 N4         -2.3624    4.2293   -6.8016 N.3   1     <0>1   -0.3300
     31 O1         -1.6925    1.7404   -1.3417 O.2   1     <0>1   -0.2775
     32 O2         -1.7962   -1.8825   -2.8995 O.2   1     <0>1   -0.2778
     33 O3          1.3962   -2.6475   -6.3738 O.2   1     <0>1   -0.2698
     34 F1         -0.5827   -3.3177   -8.3849 F     1     <0>1   -0.1623
     35 F2         -1.9749   -3.5776   -6.7262 F     1     <0>1   -0.1623
     36 F3         -0.2903   -4.9400   -6.9596 F     1     <0>1   -0.1623
     37 H1          3.7005   -4.2881    0.8772 H     1     <0>1    0.0618
     38 H2          4.6406   -2.0336    0.3557 H     1     <0>1    0.0618
     39 H3          1.2350   -4.5801    1.1525 H     1     <0>1    0.0618
     40 H4          3.1099   -0.0685    0.1100 H     1     <0>1    0.0620
     41 H5         -0.2911   -2.6113    0.9059 H     1     <0>1    0.0620
     42 H6         -6.7979    1.0788    2.4246 H     1     <0>1    0.0621
     43 H7         -5.4947    4.0925   -0.3926 H     1     <0>1    0.0621
     44 H8         -4.7527   -0.2738    1.9186 H     1     <0>1    0.0633
     45 H9         -3.4514    2.7354   -0.8940 H     1     <0>1    0.0633
     46 H161       -9.2906    4.2688    0.3305 H     1     <0>1    0.0235
     47 H162       -8.6503    2.6852   -0.3508 H     1     <0>1    0.0235
     48 H163       -7.7853    4.2308   -0.6482 H     1     <0>1    0.0235
     49 H171       -8.0558    5.4442    2.1876 H     1     <0>1    0.0235
     50 H172       -6.4357    5.4095    1.3184 H     1     <0>1    0.0235
     51 H173       -6.6293    4.6477    2.9333 H     1     <0>1    0.0235
     52 H181        1.0029    0.7362   -0.0076 H     1     <0>1    0.0333
     53 H182       -0.1314    0.2000    1.2759 H     1     <0>1    0.0333
     54 H191       -1.8985    0.2203   -5.9354 H     1     <0>1    0.0266
     55 H192       -1.8942    0.9984   -4.3151 H     1     <0>1    0.0266
     56 H201       -0.5171    2.2991   -6.7617 H     1     <0>1    0.0277
     57 H202       -0.7041    2.9480   -5.0957 H     1     <0>1    0.0277
     58 H211        0.6028    0.9870   -4.2207 H     1     <0>1    0.0285
     59 H212        0.6402    0.2589   -5.8599 H     1     <0>1    0.0285
     60 H221       -3.2093    2.9319   -5.2859 H     1     <0>1    0.0422
     61 H222       -3.0355    2.2367   -6.9366 H     1     <0>1    0.0422
     62 H23        -8.0781    2.9052    2.0982 H     1     <0>1    0.0343
     63 H24        -1.1197   -1.2616   -0.4525 H     1     <0>1    0.0561
     64 H25         1.1019   -1.5237   -4.2465 H     1     <0>1    0.0557
     65 H1         -2.7644   -0.4881    0.6978 H     1     <0>1    0.1363
     66 H2          0.6323    0.1036   -2.2379 H     1     <0>1    0.1312
     67 H3         -1.5771   -2.2109   -5.2532 H     1     <0>1    0.1314
     68 H41        -3.2770    4.6286   -7.0126 H     1     <0>1    0.1182
     69 H42        -1.7558    4.1956   -7.6208 H     1     <0>1    0.1182
@<TRIPOS>BOND
     1     1     2    ar
     2     1     3    ar
     3     1    37    1 
     4     2     4    ar
     5     2    38    1 
     6     3     5    ar
     7     3    39    1 
     8     4    10    ar
     9     4    40    1 
    10     5    10    ar
    11     5    41    1 
    12     6     8    ar
    13     6    11    ar
    14     6    42    1 
    15     7     9    ar
    16     7    11    ar
    17     7    43    1 
    18     8    12    ar
    19     8    44    1 
    20     9    12    ar
    21     9    45    1 
    22    10    18    1 
    23    11    23    1 
    24    12    27    1 
    25    13    24    1 
    26    13    27    am
    27    13    31    2 
    28    14    25    1 
    29    14    28    am
    30    14    32    2 
    31    15    26    1 
    32    15    29    am
    33    15    33    2 
    34    16    23    1 
    35    16    46    1 
    36    16    47    1 
    37    16    48    1 
    38    17    23    1 
    39    17    49    1 
    40    17    50    1 
    41    17    51    1 
    42    18    24    1 
    43    18    52    1 
    44    18    53    1 
    45    19    20    1 
    46    19    21    1 
    47    19    54    1 
    48    19    55    1 
    49    20    22    1 
    50    20    56    1 
    51    20    57    1 
    52    21    25    1 
    53    21    58    1 
    54    21    59    1 
    55    22    30    1 
    56    22    60    1 
    57    22    61    1 
    58    23    62    1 
    59    24    28    1 
    60    24    63    1 
    61    25    29    1 
    62    25    64    1 
    63    26    34    1 
    64    26    35    1 
    65    26    36    1 
    66    27    65    1 
    67    28    66    1 
    68    29    67    1 
    69    30    68    1 
    70    30    69    1 
@<TRIPOS>MOLECULE
Molecule elastase_3.mol2
    18     0
SMALL
NO_CHARGES
@<TRIPOS>ATOM
      1 DON        -2.8484    0.4001    0.2034 HB    0     HB      0.0000
      2 DON        -0.2073   -0.4362   -2.0277 HB    1     HB      0.0000
      3 DON        -0.5706   -2.0475   -5.2806 HB    2     HB      0.0000
      4 DON        -2.3624    4.2293   -6.8016 HB    3     HB      0.0000
      5 ACC        -2.3624    4.2293   -6.8016 HB    4     HB      0.0000
      6 ACC        -1.6925    1.7404   -1.3417 HB    5     HB      0.0000
      7 ACC        -1.7962   -1.8825   -2.8995 HB    6     HB      0.0000
      8 ACC         1.3962   -2.6475   -6.3738 HB    7     HB      0.0000
      9 AR          2.1770   -2.3276    0.6316 AR    8     AR      0.0000
     10 AR         -5.1292    1.9115    0.7654 AR    9     AR      0.0000
     11 HYD        -0.6340    0.6039   -5.0898 HYD   10    HYD     0.0000
     12 HYD        -1.2510    1.5991   -5.5662 HYD   11    HYD     0.0000
     13 HYD        -6.8742    3.0682    1.1945 HYD   12    HYD     0.0000
     14 HYD         0.7971   -0.6660    0.4942 HYD   13    HYD     0.0000
     15 HYD        -7.9316    3.5685    0.7254 HYD   14    HYD     0.0000
     16 HYD        -7.3142    4.1563    1.6540 HYD   15    HYD     0.0000
     17 HYD        -8.3801    3.6655    0.1067 HYD   16    HYD     0.0000
     18 HYD        -7.1452    4.8409    1.9638 HYD   17    HYD     0.0000
@<TRIPOS>BOND
@<TRIPOS>MOLECULE
elastase_4.mol2
    52    53
SMALL
NO_CHARGES
@<TRIPOS>ATOM
      1 C1         -3.6941    2.1691   -5.9147 C.ar  1     <0>1   -0.0617
      2 C2         -2.5034    2.8523   -6.1611 C.ar  1     <0>1   -0.0615
      3 C3         -3.6623    0.8899   -5.3593 C.ar  1     <0>1   -0.0615
      4 C4         -1.2806    2.2563   -5.8520 C.ar  1     <0>1   -0.0585
      5 C5         -2.4397    0.2939   -5.0503 C.ar  1     <0>1   -0.0585
      6 C6         -6.0640    1.4420    1.6852 C.ar  1     <0>1   -0.0486
      7 C7         -5.3278    3.1326    0.1240 C.ar  1     <0>1   -0.0486
      8 C8         -4.9250    0.6871    1.4047 C.ar  1     <0>1   -0.0430
      9 C9         -4.1889    2.3777   -0.1564 C.ar  1     <0>1   -0.0430
     10 C10        -1.2642    0.9846   -5.3006 C.ar  1     <0>1   -0.0454
     11 C11        -6.2654    2.6647    1.0449 C.ar  1     <0>1    0.0549
     12 C12        -4.0039    1.1658    0.4879 C.ar  1     <0>1    0.0221
     13 C13        -1.8305    0.7008   -0.6697 C.2   1     <0>1    0.2220
     14 C14        -0.7915   -1.1909   -3.0351 C.2   1     <0>1    0.2190
     15 C15         0.1808   -2.7374   -6.2193 C.2   1     <0>1    0.3052
     16 C16         0.3157   -0.0982    0.3492 C.3   1     <0>1   -0.0411
     17 C17         0.0578    0.3291   -4.9391 C.3   1     <0>1   -0.0036
     18 C18        -0.7585   -0.3861   -0.6880 C.3   1     <0>1    0.0853
     19 C19         0.0183   -1.0756   -4.2898 C.3   1     <0>1    0.0920
     20 C20        -7.4532    3.4825    1.3504 C.3   1     <0>1    0.4174
     21 C21        -0.6631   -3.6404   -7.0691 C.3   1     <0>1    0.4662
     22 N1         -2.7699    0.3196    0.1960 N.am  1     <0>1   -0.2271
     23 N2         -0.2135   -0.4401   -2.0259 N.am  1     <0>1   -0.2459
     24 N3         -0.5991   -2.0715   -5.2984 N.am  1     <0>1   -0.2390
     25 O1         -1.7274    1.7253   -1.3385 O.2   1     <0>1   -0.2775
     26 O2         -1.7977   -1.8836   -2.8992 O.2   1     <0>1   -0.2778
     27 O3          1.3954   -2.6482   -6.3745 O.2   1     <0>1   -0.2698
     28 F1         -8.1934    3.6891    0.2210 F     1     <0>1   -0.1659
     29 F2         -8.2848    2.8145    2.2036 F     1     <0>1   -0.1659
     30 F3         -7.2769    4.7179    1.9034 F     1     <0>1   -0.1659
     31 F4         -1.9750   -3.5775   -6.7261 F     1     <0>1   -0.1623
     32 F5         -0.2882   -4.9404   -6.9595 F     1     <0>1   -0.1623
     33 F6         -0.5864   -3.3200   -8.3858 F     1     <0>1   -0.1623
     34 H1         -4.6611    2.6402   -6.1590 H     1     <0>1    0.0618
     35 H2         -2.5286    3.8637   -6.6003 H     1     <0>1    0.0618
     36 H3         -4.6040    0.3496   -5.1644 H     1     <0>1    0.0618
     37 H4         -0.3358    2.7919   -6.0447 H     1     <0>1    0.0620
     38 H5         -2.4085   -0.7174   -4.6110 H     1     <0>1    0.0620
     39 H6         -6.8053    1.0721    2.4133 H     1     <0>1    0.0624
     40 H7         -5.4870    4.0995   -0.3823 H     1     <0>1    0.0624
     41 H8         -4.7598   -0.2806    1.9075 H     1     <0>1    0.0633
     42 H9         -3.4437    2.7420   -0.8834 H     1     <0>1    0.0633
     43 H161        1.1080   -0.8826    0.3298 H     1     <0>1    0.0249
     44 H162       -0.1184    0.0235    1.3690 H     1     <0>1    0.0249
     45 H163        0.7964    0.8691    0.0730 H     1     <0>1    0.0249
     46 H171        0.1693    0.3791   -5.9269 H     1     <0>1    0.0333
     47 H172       -0.9989    0.7847   -4.6251 H     1     <0>1    0.0333
     48 H18        -1.2332   -1.3670   -0.4621 H     1     <0>1    0.0554
     49 H19         1.1090   -1.4956   -4.2409 H     1     <0>1    0.0560
     50 H1         -2.7603   -0.4851    0.7028 H     1     <0>1    0.1363
     51 H2         -0.1499    0.4324   -2.5559 H     1     <0>1    0.1312
     52 H3         -1.5776   -2.2110   -5.2533 H     1     <0>1    0.1314
@<TRIPOS>BOND
     1     1     2    ar
     2     1     3    ar
     3     1    34    1 
     4     2     4    ar
     5     2    35    1 
     6     3     5    ar
     7     3    36    1 
     8     4    10    ar
     9     4    37    1 
    10     5    10    ar
    11     5    38    1 
    12     6     8    ar
    13     6    11    ar
    14     6    39    1 
    15     7     9    ar
    16     7    11    ar
    17     7    40    1 
    18     8    12    ar
    19     8    41    1 
    20     9    12    ar
    21     9    42    1 
    22    10    17    1 
    23    11    20    1 
    24    12    22    1 
    25    13    18    1 
    26    13    22    am
    27    13    25    2 
    28    14    19    1 
    29    14    23    am
    30    14    26    2 
    31    15    21    1 
    32    15    24    am
    33    15    27    2 
    34    16    18    1 
    35    16    43    1 
    36    16    44    1 
    37    16    45    1 
    38    17    19    1 
    39    17    46    1 
    40    17    47    1 
    41    18    23    1 
    42    18    48    1 
    43    19    24    1 
    44    19    49    1 
    45    20    28    1 
    46    20    29    1 
    47    20    30    1 
    48    21    31    1 
    49    21    32    1 
    50    21    33    1 
    51    22    50    1 
    52    23    51    1 
    53    24    52    1 
@<TRIPOS>MOLECULE
Molecule elastase_4.mol2
    10     0
SMALL
NO_CHARGES
@<TRIPOS>ATOM
      1 DON        -2.8483    0.3999    0.2033 HB    0     HB      0.0000
      2 DON        -0.1953   -0.4332   -2.0181 HB    1     HB      0.0000
      3 DON        -0.5711   -2.0479   -5.2810 HB    2     HB      0.0000
      4 ACC        -1.7274    1.7253   -1.3385 HB    3     HB      0.0000
      5 ACC        -1.7977   -1.8836   -2.8992 HB    4     HB      0.0000
      6 ACC         1.3954   -2.6482   -6.3745 HB    5     HB      0.0000
      7 AR         -2.4741    1.5743   -5.6063 AR    6     AR      0.0000
      8 AR         -5.1292    1.9117    0.7651 AR    7     AR      0.0000
      9 HYD        -0.6142    0.6277   -5.1083 HYD   8     HYD     0.0000
     10 HYD         0.3157   -0.0982    0.3492 HYD   9     HYD     0.0000
@<TRIPOS>BOND
@<TRIPOS>MOLECULE
elastase_5.mol2
    48    48
SMALL
NO_CHARGES
@<TRIPOS>ATOM
      1 C1         -6.0705    1.4167    1.6011 C.ar  1     <0>1   -0.0486
      2 C2         -5.3975    3.1161    0.0212 C.ar  1     <0>1   -0.0486
      3 C3         -4.9508    0.6574    1.2613 C.ar  1     <0>1   -0.0430
      4 C4         -4.2778    2.3568   -0.3185 C.ar  1     <0>1   -0.0430
      5 C5         -6.2938    2.6460    0.9811 C.ar  1     <0>1    0.0549
      6 C6         -4.0705    1.1384    0.3064 C.ar  1     <0>1    0.0221
      7 C7         -1.8189    0.7131   -0.6730 C.2   1     <0>1    0.2220
      8 C8         -0.7860   -1.1960   -3.0398 C.2   1     <0>1    0.2189
      9 C9          0.1810   -2.7374   -6.2193 C.2   1     <0>1    0.3052
     10 C10         0.3430   -0.1931    0.3400 C.3   1     <0>1   -0.0411
     11 C11        -1.3166    0.8954   -5.2641 C.3   1     <0>1   -0.0608
     12 C12         0.7913    1.2566   -3.9552 C.3   1     <0>1   -0.0608
     13 C13        -0.7612   -0.3804   -0.6887 C.3   1     <0>1    0.0853
     14 C14        -0.0223   -1.1154   -4.3401 C.3   1     <0>1    0.0903
     15 C15         0.0584    0.3154   -4.9159 C.3   1     <0>1   -0.0227
     16 C16        -7.4757    3.4573    1.3084 C.3   1     <0>1    0.4174
     17 C17        -0.6631   -3.6404   -7.0691 C.3   1     <0>1    0.4662
     18 N1         -2.8481    0.3992    0.2036 N.am  1     <0>1   -0.2271
     19 N2         -0.2036   -0.4383   -2.0289 N.am  1     <0>1   -0.2459
     20 N3         -0.5710   -2.0476   -5.2806 N.am  1     <0>1   -0.2391
     21 O1         -1.7082    1.7359   -1.3433 O.2   1     <0>1   -0.2775
     22 O2         -1.7972   -1.8843   -2.9176 O.2   1     <0>1   -0.2778
     23 O3          1.3956   -2.6480   -6.3741 O.2   1     <0>1   -0.2698
     24 F1         -8.3558    3.7019    0.2925 F     1     <0>1   -0.1659
     25 F2         -8.2226    2.8778    2.2943 F     1     <0>1   -0.1659
     26 F3         -7.1229    4.6847    1.7902 F     1     <0>1   -0.1659
     27 F4         -1.9750   -3.5776   -6.7261 F     1     <0>1   -0.1623
     28 F5         -0.2882   -4.9404   -6.9595 F     1     <0>1   -0.1623
     29 F6         -0.5864   -3.3200   -8.3858 F     1     <0>1   -0.1623
     30 H1         -6.7794    1.0449    2.3599 H     1     <0>1    0.0624
     31 H2         -5.5742    4.0881   -0.4692 H     1     <0>1    0.0624
     32 H3         -4.7684   -0.3155    1.7479 H     1     <0>1    0.0633
     33 H4         -3.5651    2.7228   -1.0767 H     1     <0>1    0.0633
     34 H101        1.1115   -0.9959    0.2497 H     1     <0>1    0.0249
     35 H102       -0.0654   -0.1286    1.3755 H     1     <0>1    0.0249
     36 H103        0.8456    0.7771    0.1180 H     1     <0>1    0.0249
     37 H111       -1.8501    0.2102   -5.9635 H     1     <0>1    0.0233
     38 H112       -1.2441    1.9324   -5.6673 H     1     <0>1    0.0233
     39 H113       -1.9101    0.9423   -4.3213 H     1     <0>1    0.0233
     40 H121        1.7917    0.8346   -3.7019 H     1     <0>1    0.0233
     41 H122        0.1877    1.4792   -3.0446 H     1     <0>1    0.0233
     42 H123        0.9589    2.2200   -4.4911 H     1     <0>1    0.0233
     43 H13        -1.2400   -1.3598   -0.4647 H     1     <0>1    0.0554
     44 H14         1.0918   -1.0548   -4.5395 H     1     <0>1    0.0560
     45 H15         0.5250    0.9623   -4.1263 H     1     <0>1    0.0315
     46 H1         -2.8288   -0.5216    0.4492 H     1     <0>1    0.1363
     47 H2          0.6053    0.2055   -2.2128 H     1     <0>1    0.1312
     48 H3         -1.5775   -2.2111   -5.2532 H     1     <0>1    0.1314
@<TRIPOS>BOND
     1     1     3    ar
     2     1     5    ar
     3     1    30    1 
     4     2     4    ar
     5     2     5    ar
     6     2    31    1 
     7     3     6    ar
     8     3    32    1 
     9     4     6    ar
    10     4    33    1 
    11     5    16    1 
    12     6    18    1 
    13     7    13    1 
    14     7    18    am
    15     7    21    2 
    16     8    14    1 
    17     8    19    am
    18     8    22    2 
    19     9    17    1 
    20     9    20    am
    21     9    23    2 
    22    10    13    1 
    23    10    34    1 
    24    10    35    1 
    25    10    36    1 
    26    11    15    1 
    27    11    37    1 
    28    11    38    1 
    29    11    39    1 
    30    12    15    1 
    31    12    40    1 
    32    12    41    1 
    33    12    42    1 
    34    13    19    1 
    35    13    43    1 
    36    14    15    1 
    37    14    20    1 
    38    14    44    1 
    39    15    45    1 
    40    16    24    1 
    41    16    25    1 
    42    16    26    1 
    43    17    27    1 
    44    17    28    1 
    45    17    29    1 
    46    18    46    1 
    47    19    47    1 
    48    20    48    1 
@<TRIPOS>MOLECULE
Molecule elastase_5.mol2
    12     0
SMALL
NO_CHARGES
@<TRIPOS>ATOM
      1 DON        -2.9344    0.3681   -0.0383 HB    0     HB      0.0000
      2 DON        -0.2286   -0.3532   -2.0314 HB    1     HB      0.0000
      3 DON        -0.5710   -2.0479   -5.2808 HB    2     HB      0.0000
      4 ACC        -1.7082    1.7359   -1.3433 HB    3     HB      0.0000
      5 ACC        -1.7972   -1.8843   -2.9176 HB    4     HB      0.0000
      6 ACC         1.3956   -2.6480   -6.3741 HB    5     HB      0.0000
      7 AR         -5.1768    1.8886    0.6421 AR    6     AR      0.0000
      8 HYD        -0.6291    0.6054   -5.0900 HYD   7     HYD     0.0000
      9 HYD         0.4248    0.7860   -4.4356 HYD   8     HYD     0.0000
     10 HYD         0.3430   -0.1931    0.3400 HYD   9     HYD     0.0000
     11 HYD        -1.3166    0.8954   -5.2641 HYD   10    HYD     0.0000
     12 HYD         0.7913    1.2566   -3.9552 HYD   11    HYD     0.0000
@<TRIPOS>BOND
@<TRIPOS>MOLECULE
elastase_6.mol2
    37    39
SMALL
NO_CHARGES
@<TRIPOS>ATOM
      1 C1         -3.7093    2.1651   -5.9759 C.ar  1     <0>1   -0.0617
      2 C2         -3.7044    0.8743   -5.4472 C.ar  1     <0>1   -0.0614
      3 C3         -2.5072    2.8483   -6.1591 C.ar  1     <0>1   -0.0614
      4 C4         -2.4973    0.2668   -5.1017 C.ar  1     <0>1   -0.0564
      5 C5         -1.3000    2.2409   -5.8135 C.ar  1     <0>1   -0.0564
      6 C6         -4.8992    0.6870    1.3878 C.ar  1     <0>1   -0.0284
      7 C7         -5.7905    1.7409    1.3402 C.ar  1     <0>1   -0.0215
      8 C8         -1.3027    0.9540   -5.2869 C.ar  1     <0>1   -0.0213
      9 C9         -3.8019    0.9198    0.5271 C.ar  1     <0>1    0.0864
     10 C10        -3.8757    2.1078   -0.1380 C.ar  1     <0>1    0.1094
     11 C11        -2.8841    2.5625   -1.0624 C.2   1     <0>1    0.3086
     12 C12        -1.8526    0.4857   -0.4923 C.2   1     <0>1    0.1701
     13 C13        -0.7491   -1.1691   -3.1072 C.2   1     <0>1    0.3390
     14 C14         0.3307   -0.1040    0.3351 C.3   1     <0>1   -0.0416
     15 C15         0.0619    0.3147   -4.9154 C.3   1     <0>1    0.0834
     16 C16        -0.7504   -0.3909   -0.6856 C.3   1     <0>1    0.0788
     17 N1         -2.7334    0.0419    0.3523 N.2   1     <0>1   -0.2247
     18 N2         -0.1275   -0.3868   -2.0784 N.am  1     <0>1   -0.2231
     19 O1         -2.9064    3.6195   -1.6827 O.2   1     <0>1   -0.2581
     20 O2         -1.7361   -1.8602   -2.8772 O.2   1     <0>1   -0.2454
     21 O3         -1.8514    1.6636   -1.2007 O.3   1     <0>1   -0.2568
     22 O4         -0.0347   -1.0587   -4.3128 O.3   1     <0>1   -0.2978
     23 S1         -5.2766    2.9776    0.2599 S.3   1     <0>1   -0.0892
     24 H1         -4.6638    2.6456   -6.2492 H     1     <0>1    0.0618
     25 H2         -4.6550    0.3340   -5.3024 H     1     <0>1    0.0618
     26 H3         -2.5111    3.8690   -6.5774 H     1     <0>1    0.0618
     27 H4         -2.4904   -0.7538   -4.6835 H     1     <0>1    0.0621
     28 H5         -0.3479    2.7789   -5.9572 H     1     <0>1    0.0621
     29 H6         -5.0261   -0.2134    2.0121 H     1     <0>1    0.0644
     30 H7         -6.7236    1.7847    1.9268 H     1     <0>1    0.0694
     31 H141        1.1040   -0.9074    0.3365 H     1     <0>1    0.0249
     32 H142       -0.0968    0.0564    1.3522 H     1     <0>1    0.0249
     33 H143        0.8340    0.8434    0.0311 H     1     <0>1    0.0249
     34 H151       -1.0016    0.7161   -4.9643 H     1     <0>1    0.0616
     35 H152        0.5695    0.9041   -4.1068 H     1     <0>1    0.0616
     36 H16        -0.0224    0.2291   -1.5851 H     1     <0>1    0.0548
     37 H2          0.5970    0.1459   -2.2238 H     1     <0>1    0.1334
@<TRIPOS>BOND
     1     1     2    ar
     2     1     3    ar
     3     1    24    1 
     4     2     4    ar
     5     2    25    1 
     6     3     5    ar
     7     3    26    1 
     8     4     8    ar
     9     4    27    1 
    10     5     8    ar
    11     5    28    1 
    12     6     7    2 
    13     6     9    1 
    14     6    29    1 
    15     7    23    1 
    16     7    30    1 
    17     8    15    1 
    18     9    10    2 
    19     9    17    1 
    20    10    11    1 
    21    10    23    1 
    22    11    19    2 
    23    11    21    1 
    24    12    16    1 
    25    12    17    2 
    26    12    21    1 
    27    13    18    am
    28    13    20    2 
    29    13    22    1 
    30    14    16    1 
    31    14    31    1 
    32    14    32    1 
    33    14    33    1 
    34    15    22    1 
    35    15    34    1 
    36    15    35    1 
    37    16    18    1 
    38    16    36    1 
    39    18    37    1 
@<TRIPOS>MOLECULE
Molecule elastase_6.mol2
    11     0
SMALL
NO_CHARGES
@<TRIPOS>ATOM
      1 DON        -0.2373   -0.4061   -2.0250 HB    0     HB      0.0000
      2 ACC        -2.7334    0.0419    0.3523 HB    1     HB      0.0000
      3 ACC        -2.9064    3.6195   -1.6827 HB    2     HB      0.0000
      4 ACC        -1.7361   -1.8602   -2.8772 HB    3     HB      0.0000
      5 ACC        -1.8514    1.6636   -1.2007 HB    4     HB      0.0000
      6 ACC        -0.0931   -1.1280   -4.3052 HB    5     HB      0.0000
      7 ACC        -5.2766    2.9776    0.2599 HB    6     HB      0.0000
      8 AR         -2.5035    1.5583   -5.6307 AR    7     AR      0.0000
      9 AR         -4.7288    1.6866    0.6754 AR    8     AR      0.0000
     10 AR         -2.8332    1.2969   -0.3357 AR    9     AR      0.0000
     11 HYD         0.3307   -0.1040    0.3351 HYD   10    HYD     0.0000
@<TRIPOS>BOND
@<TRIPOS>MOLECULE
elastase_7.mol2
    42    43
SMALL
NO_CHARGES
@<TRIPOS>ATOM
      1 C1          1.5950   -1.9312   -8.7510 C.ar  1     <0>1   -0.0617
      2 C2          0.5868   -0.9991   -8.5055 C.ar  1     <0>1   -0.0614
      3 C3          1.9322   -2.8675   -7.7734 C.ar  1     <0>1   -0.0614
      4 C4         -0.0841   -1.0031   -7.2826 C.ar  1     <0>1   -0.0564
      5 C5          1.2612   -2.8715   -6.5506 C.ar  1     <0>1   -0.0564
      6 C6         -5.2923    3.0935    0.1252 C.ar  1     <0>1   -0.0191
      7 C7          0.2574   -1.9393   -6.3129 C.ar  1     <0>1   -0.0213
      8 C8         -4.1488    2.3949   -0.1940 C.ar  1     <0>1   -0.0245
      9 C9         -4.0794    1.1878    0.5244 C.ar  1     <0>1    0.0459
     10 C10        -5.1301    0.9728    1.3608 C.ar  1     <0>1    0.1033
     11 C11        -5.3312   -0.2486    2.2681 C.2   1     <0>1    0.2182
     12 C12        -1.8187    0.7140   -0.6752 C.2   1     <0>1    0.2221
     13 C13        -0.7179   -1.1659   -3.0861 C.2   1     <0>1    0.3391
     14 C14        -3.1419    2.8782   -1.1702 C.3   1     <0>1   -0.0377
     15 C15         0.3364   -0.1300    0.3409 C.3   1     <0>1   -0.0410
     16 C16        -0.4643   -1.9436   -4.9974 C.3   1     <0>1    0.0834
     17 C17        -0.7523   -0.3831   -0.6905 C.3   1     <0>1    0.0874
     18 N1         -2.8484    0.3998    0.2034 N.am  1     <0>1   -0.2257
     19 N2         -0.2184   -0.4432   -2.0245 N.am  1     <0>1   -0.2224
     20 O1         -6.3766   -0.2551    2.9693 O.co2 1     <0>1   -0.6436
     21 O2         -4.4318   -1.1281    2.2254 O.co2 1     <0>1   -0.6436
     22 O3         -1.7073    1.7361   -1.3464 O.2   1     <0>1   -0.2775
     23 O4         -1.7035   -1.8610   -2.8623 O.2   1     <0>1   -0.2454
     24 O5         -0.0679   -1.1595   -4.3253 O.3   1     <0>1   -0.2978
     25 S1         -6.2466    2.2687    1.2834 S.3   1     <0>1   -0.0888
     26 H1          2.1256   -1.9280   -9.7180 H     1     <0>1    0.0618
     27 H2          0.3201   -0.2587   -9.2784 H     1     <0>1    0.0618
     28 H3          2.7295   -3.6046   -7.9675 H     1     <0>1    0.0618
     29 H4         -0.8817   -0.2672   -7.0858 H     1     <0>1    0.0621
     30 H5          1.5257   -3.6107   -5.7759 H     1     <0>1    0.0621
     31 H6         -5.5615    4.0690   -0.3135 H     1     <0>1    0.0697
     32 H141       -2.2163    2.3128   -1.4286 H     1     <0>1    0.0278
     33 H142       -2.8271    3.8968   -0.8439 H     1     <0>1    0.0278
     34 H143       -3.6909    3.0207   -2.1301 H     1     <0>1    0.0278
     35 H151        1.1046   -0.9377    0.3151 H     1     <0>1    0.0249
     36 H152       -0.0878    0.0024    1.3635 H     1     <0>1    0.0249
     37 H153        0.8443    0.8232    0.0637 H     1     <0>1    0.0249
     38 H161       -0.6881   -3.1283   -4.8240 H     1     <0>1    0.0616
     39 H162       -1.6926   -1.7693   -5.4430 H     1     <0>1    0.0616
     40 H17        -1.2406   -1.3589   -0.4648 H     1     <0>1    0.0555
     41 H1         -3.2512   -0.7177    0.5564 H     1     <0>1    0.1364
     42 H2          0.6370    0.1037   -2.2166 H     1     <0>1    0.1334
@<TRIPOS>BOND
     1     1     2    ar
     2     1     3    ar
     3     1    26    1 
     4     2     4    ar
     5     2    27    1 
     6     3     5    ar
     7     3    28    1 
     8     4     7    ar
     9     4    29    1 
    10     5     7    ar
    11     5    30    1 
    12     6     8    2 
    13     6    25    1 
    14     6    31    1 
    15     7    16    1 
    16     8     9    1 
    17     8    14    1 
    18     9    10    2 
    19     9    18    1 
    20    10    11    1 
    21    10    25    1 
    22    11    20    1 
    23    11    21    2 
    24    12    17    1 
    25    12    18    am
    26    12    22    2 
    27    13    19    am
    28    13    23    2 
    29    13    24    1 
    30    14    32    1 
    31    14    33    1 
    32    14    34    1 
    33    15    17    1 
    34    15    35    1 
    35    15    36    1 
    36    15    37    1 
    37    16    24    1 
    38    16    38    1 
    39    16    39    1 
    40    17    19    1 
    41    17    40    1 
    42    18    41    1 
    43    19    42    1 
@<TRIPOS>MOLECULE
Molecule elastase_7.mol2
    14     0
SMALL
NO_CHARGES
@<TRIPOS>ATOM
      1 DON        -3.0155    0.2626    0.4019 HB    0     HB      0.0000
      2 DON        -0.2006   -0.4438   -2.0193 HB    1     HB      0.0000
      3 ACC        -6.3766   -0.2551    2.9693 HB    2     HB      0.0000
      4 ACC        -4.4318   -1.1281    2.2254 HB    3     HB      0.0000
      5 ACC        -1.7073    1.7361   -1.3464 HB    4     HB      0.0000
      6 ACC        -1.7035   -1.8610   -2.8623 HB    5     HB      0.0000
      7 ACC        -0.0557   -1.1208   -4.2807 HB    6     HB      0.0000
      8 ACC        -6.2466    2.2687    1.2834 HB    7     HB      0.0000
      9 ANI        -5.3312   -0.2486    2.2681 CHG   8     CHG     0.2182
     10 AR          0.9248   -1.9353   -7.5293 AR    9     AR      0.0000
     11 AR         -4.9794    1.9835    0.6200 AR    10    AR      0.0000
     12 HYD        -3.6453    2.6365   -0.6821 HYD   11    HYD     0.0000
     13 HYD        -3.1419    2.8782   -1.1702 HYD   12    HYD     0.0000
     14 HYD         0.3364   -0.1300    0.3409 HYD   13    HYD     0.0000
@<TRIPOS>BOND
