@<TRIPOS>MOLECULE
Molecule streptavidin_5.mol2
     9     0
SMALL
NO_CHARGES
@<TRIPOS>ATOM
      1 DON         0.9119   -6.0590    0.6348 HB    0     HB      0.0000
      2 DON         1.0513   -6.2038    1.8705 HB    1     HB      0.0000
      3 DON         4.2877   -2.0367   -1.1797 HB    2     HB      0.0000
      4 ACC         0.7473   -5.1767    4.1427 HB    3     HB      0.0000
      5 ACC        -0.5019   -6.1897    5.7275 HB    4     HB      0.0000
      6 ACC         4.2877   -2.0367   -1.1797 HB    5     HB      0.0000
      7 ANI         0.0029   -6.1459    4.5449 CHG   6     CHG     0.2113
      9 AR         -0.5664   -8.3094    2.7476 AR    8     AR      0.0000
     10 AR          2.5683   -3.9947   -0.2701 AR    9     AR      0.0000
@<TRIPOS>BOND
@<TRIPOS>MOLECULE
streptavidin_5.mol2
    35    37
SMALL
NO_CHARGES
@<TRIPOS>ATOM
      1 C1         -0.4966   -2.0341    0.4940 C.ar  1     <0>1   -0.0611
      2 C2          0.3500   -1.0275    0.0392 C.ar  1     <0>1   -0.0611
      3 C3         -1.3718   -9.3639    3.1753 C.ar  1     <0>1   -0.0609
      4 C4         -0.8490   -9.3658    1.8822 C.ar  1     <0>1   -0.0602
      5 C5         -0.0479   -3.3542    0.5448 C.ar  1     <0>1   -0.0524
      6 C6          1.6484   -1.3369   -0.3665 C.ar  1     <0>1   -0.0515
      7 C7         -1.0889   -8.3069    4.0405 C.ar  1     <0>1   -0.0466
      8 C8         -0.0431   -8.3108    1.4542 C.ar  1     <0>1   -0.0419
      9 C9          3.0228   -5.3167   -0.2210 C.ar  1     <0>1   -0.0397
     10 C10         3.8693   -4.3100   -0.6758 C.ar  1     <0>1   -0.0298
     11 C11         1.2560   -3.6839    0.1403 C.ar  1     <0>1    0.0036
     12 C12         2.1168   -2.6602   -0.3222 C.ar  1     <0>1    0.0134
     13 C13        -0.2830   -7.2519    3.6125 C.ar  1     <0>1    0.0667
     14 C14         1.7243   -5.0072    0.1848 C.ar  1     <0>1    0.0377
     15 C15         0.2373   -7.2572    2.3208 C.ar  1     <0>1    0.0435
     16 C16         3.4207   -2.9899   -0.7267 C.ar  1     <0>1    0.0804
     17 C17         0.0029   -6.1459    4.5449 C.2   1     <0>1    0.2113
     18 N1          0.9119   -6.0590    0.6348 N.pl3 1     <0>1   -0.2209
     19 N2          1.0513   -6.2038    1.8705 N.pl3 1     <0>1   -0.2207
     20 O1          0.7473   -5.1767    4.1427 O.co2 1     <0>1   -0.6439
     21 O2         -0.5019   -6.1897    5.7275 O.co2 1     <0>1   -0.6439
     22 O3          4.2877   -2.0367   -1.1797 O.3   1     <0>1   -0.3592
     23 H1         -1.5229   -1.7881    0.8145 H     1     <0>1    0.0618
     24 H2         -0.0059    0.0158   -0.0005 H     1     <0>1    0.0618
     25 H3         -2.0089  -10.1982    3.5138 H     1     <0>1    0.0618
     26 H4         -1.0728  -10.2015    1.1981 H     1     <0>1    0.0618
     27 H5         -0.7241   -4.1470    0.9064 H     1     <0>1    0.0624
     28 H6          2.3139   -0.5340   -0.7257 H     1     <0>1    0.0624
     29 H7         -1.5025   -8.3054    5.0630 H     1     <0>1    0.0626
     30 H8          0.3711   -8.3110    0.4319 H     1     <0>1    0.0634
     31 H9          3.3787   -6.3599   -0.1813 H     1     <0>1    0.0635
     32 H10         4.8957   -4.5560   -0.9963 H     1     <0>1    0.0644
     33 H1          0.2996   -6.6213    0.0438 H     1     <0>1    0.1471
     34 H2          1.6637   -5.6417    2.4616 H     1     <0>1    0.1471
     35 H3          3.9822   -1.1378   -1.2144 H     1     <0>1    0.2173
@<TRIPOS>BOND
     1     1     2    ar
     2     1     5    ar
     3     1    23    1 
     4     2     6    ar
     5     2    24    1 
     6     3     4    ar
     7     3     7    ar
     8     3    25    1 
     9     4     8    ar
    10     4    26    1 
    11     5    11    ar
    12     5    27    1 
    13     6    12    ar
    14     6    28    1 
    15     7    13    ar
    16     7    29    1 
    17     8    15    ar
    18     8    30    1 
    19     9    10    ar
    20     9    14    ar
    21     9    31    1 
    22    10    16    ar
    23    10    32    1 
    24    11    12    ar
    25    11    14    ar
    26    12    16    ar
    27    13    15    ar
    28    13    17    1 
    29    14    18    1 
    30    15    19    1 
    31    16    22    1 
    32    17    20    1 
    33    17    21    2 
    34    18    19    2 
    35    18    33    1 
    36    19    34    1 
    37    22    35    1 
@<TRIPOS>MOLECULE
Molecule streptavidin_5.mol2
    10     0
SMALL
NO_CHARGES
@<TRIPOS>ATOM
      1 DON         0.9119   -6.0590    0.6348 HB    0     HB      0.0000
      2 DON         1.0513   -6.2038    1.8705 HB    1     HB      0.0000
      3 DON         4.2877   -2.0367   -1.1797 HB    2     HB      0.0000
      4 ACC         0.7473   -5.1767    4.1427 HB    3     HB      0.0000
      5 ACC        -0.5019   -6.1897    5.7275 HB    4     HB      0.0000
      6 ACC         4.2877   -2.0367   -1.1797 HB    5     HB      0.0000
      7 ANI         0.0029   -6.1459    4.5449 CHG   6     CHG     0.2113
      8 AR          0.8044   -2.3495    0.0883 AR    7     AR      0.0000
      9 AR         -0.5664   -8.3094    2.7476 AR    8     AR      0.0000
     10 AR          2.5683   -3.9947   -0.2701 AR    9     AR      0.0000
@<TRIPOS>BOND
@<TRIPOS>MOLECULE
streptavidin_1.mol2
    41    42
SMALL
NO_CHARGES
@<TRIPOS>ATOM
      1 C1         -1.3720   -9.3638    3.1751 C.ar  1     <0>1   -0.0609
      2 C2         -0.8491   -9.3656    1.8819 C.ar  1     <0>1   -0.0602
      3 C3         -1.0889   -8.3069    4.0404 C.ar  1     <0>1   -0.0466
      4 C4         -0.0432   -8.3107    1.4541 C.ar  1     <0>1   -0.0419
      5 C5          3.0305   -5.2642   -0.2317 C.ar  1     <0>1   -0.0403
      6 C6          3.8383   -4.2188   -0.6791 C.ar  1     <0>1   -0.0301
      7 C7          1.2259   -3.7048    0.1539 C.ar  1     <0>1   -0.0366
      8 C8         -0.2830   -7.2520    3.6125 C.ar  1     <0>1    0.0667
      9 C9          2.0502   -2.7008   -0.2927 C.ar  1     <0>1   -0.0108
     10 C10         1.7243   -5.0072    0.1849 C.ar  1     <0>1    0.0303
     11 C11         0.2373   -7.2571    2.3207 C.ar  1     <0>1    0.0435
     12 C12         3.3399   -2.9162   -0.7100 C.ar  1     <0>1    0.0763
     13 C13         0.0029   -6.1459    4.5448 C.2   1     <0>1    0.2113
     14 C14         0.8171   -1.0013   -1.6846 C.3   1     <0>1   -0.0560
     15 C15         2.6274   -0.2559   -0.1024 C.3   1     <0>1   -0.0560
     16 C16         0.4212   -0.9999    0.7700 C.3   1     <0>1   -0.0560
     17 C17         1.4843   -1.2712   -0.3186 C.3   1     <0>1   -0.0102
     18 N1          0.9148   -6.0556    0.6332 N.pl3 1     <0>1   -0.2214
     19 N2          1.0513   -6.2038    1.8705 N.pl3 1     <0>1   -0.2207
     20 O1          0.7473   -5.1767    4.1427 O.co2 1     <0>1   -0.6439
     21 O2         -0.5019   -6.1897    5.7275 O.co2 1     <0>1   -0.6439
     22 O3          4.1418   -1.9070   -1.1511 O.3   1     <0>1   -0.3595
     23 H1         -2.0092  -10.1981    3.5134 H     1     <0>1    0.0618
     24 H2         -1.0729  -10.2012    1.1977 H     1     <0>1    0.0618
     25 H3         -1.5024   -8.3054    5.0629 H     1     <0>1    0.0626
     26 H4          0.3710   -8.3108    0.4318 H     1     <0>1    0.0634
     27 H5          3.4247   -6.2941   -0.2073 H     1     <0>1    0.0634
     28 H6          4.8712   -4.4220   -1.0084 H     1     <0>1    0.0644
     29 H7          0.1952   -3.4864    0.4801 H     1     <0>1    0.0637
     30 H141        0.4068    0.0353   -1.7034 H     1     <0>1    0.0238
     31 H142        0.0427   -1.7643   -1.9320 H     1     <0>1    0.0238
     32 H143        1.6113   -1.0629   -2.4648 H     1     <0>1    0.0238
     33 H151        2.2170    0.7807   -0.1212 H     1     <0>1    0.0238
     34 H152        3.4557   -0.3932   -0.8361 H     1     <0>1    0.0238
     35 H153        3.0468   -0.4332    0.9154 H     1     <0>1    0.0238
     36 H161        0.0108    0.0367    0.7512 H     1     <0>1    0.0238
     37 H162        0.8235   -1.2445    1.7808 H     1     <0>1    0.0238
     38 H163       -0.4301   -1.6939    0.5783 H     1     <0>1    0.0238
     39 H1          0.3031   -6.6171    0.0407 H     1     <0>1    0.1471
     40 H2          1.6630   -5.6426    2.4631 H     1     <0>1    0.1471
     41 H3          3.8024   -1.0199   -1.1722 H     1     <0>1    0.2173
@<TRIPOS>BOND
     1     1     2    ar
     2     1     3    ar
     3     1    23    1 
     4     2     4    ar
     5     2    24    1 
     6     3     8    ar
     7     3    25    1 
     8     4    11    ar
     9     4    26    1 
    10     5     6    ar
    11     5    10    ar
    12     5    27    1 
    13     6    12    ar
    14     6    28    1 
    15     7     9    ar
    16     7    10    ar
    17     7    29    1 
    18     8    11    ar
    19     8    13    1 
    20     9    12    ar
    21     9    17    1 
    22    10    18    1 
    23    11    19    1 
    24    12    22    1 
    25    13    20    1 
    26    13    21    2 
    27    14    17    1 
    28    14    30    1 
    29    14    31    1 
    30    14    32    1 
    31    15    17    1 
    32    15    33    1 
    33    15    34    1 
    34    15    35    1 
    35    16    17    1 
    36    16    36    1 
    37    16    37    1 
    38    16    38    1 
    39    18    19    2 
    40    18    39    1 
    41    19    40    1 
    42    22    41    1 
@<TRIPOS>MOLECULE
Molecule streptavidin_1.mol2
    16     0
SMALL
NO_CHARGES
@<TRIPOS>ATOM
      1 DON         0.9148   -6.0556    0.6332 HB    0     HB      0.0000
      2 DON         1.0513   -6.2038    1.8705 HB    1     HB      0.0000
      3 DON         4.1418   -1.9070   -1.1511 HB    2     HB      0.0000
      4 ACC         0.7475   -5.1768    4.1430 HB    3     HB      0.0000
      5 ACC        -0.5016   -6.1901    5.7276 HB    4     HB      0.0000
      6 ACC         4.1418   -1.9070   -1.1511 HB    5     HB      0.0000
      7 ANI         0.0031   -6.1461    4.5450 CHG   6     CHG     0.2113
      8 AR         -0.5665   -8.3093    2.7474 AR    7     AR      0.0000
      9 AR          2.5349   -3.9686   -0.2625 AR    8     AR      0.0000
     10 HYD         1.7672   -1.9860   -0.3057 HYD   9     HYD     0.0000
     11 HYD         1.1507   -1.1363   -1.0016 HYD   10    HYD     0.0000
     12 HYD         2.0558   -0.7636   -0.2105 HYD   11    HYD     0.0000
     13 HYD         0.9528   -1.1356    0.2257 HYD   12    HYD     0.0000
     14 HYD         0.8171   -1.0013   -1.6846 HYD   13    HYD     0.0000
     15 HYD         2.6274   -0.2559   -0.1024 HYD   14    HYD     0.0000
     16 HYD         0.4212   -0.9999    0.7700 HYD   15    HYD     0.0000
@<TRIPOS>BOND
@<TRIPOS>MOLECULE
streptavidin_2.mol2
    32    33
SMALL
NO_CHARGES
@<TRIPOS>ATOM
      1 C1         -1.3673   -9.3620    3.1890 C.ar  1     <0>1   -0.0609
      2 C2         -0.8462   -9.3675    1.8951 C.ar  1     <0>1   -0.0602
      3 C3         -1.0840   -8.3021    4.0505 C.ar  1     <0>1   -0.0466
      4 C4         -0.0419   -8.3132    1.4627 C.ar  1     <0>1   -0.0419
      5 C5          3.0189   -5.2747   -0.2433 C.ar  1     <0>1   -0.0403
      6 C6          3.8236   -4.2306   -0.6994 C.ar  1     <0>1   -0.0302
      7 C7          1.2145   -3.7151    0.1428 C.ar  1     <0>1   -0.0374
      8 C8         -0.2796   -7.2478    3.6181 C.ar  1     <0>1    0.0667
      9 C9          2.0194   -2.6710   -0.3133 C.ar  1     <0>1   -0.0192
     10 C10         1.7184   -5.0117    0.1755 C.ar  1     <0>1    0.0303
     11 C11         0.2415   -7.2533    2.3242 C.ar  1     <0>1    0.0435
     12 C12         3.3239   -2.9288   -0.7344 C.ar  1     <0>1    0.0756
     13 C13         0.0029   -6.1459    4.5450 C.2   1     <0>1    0.2113
     14 C14         1.4685   -1.2837   -0.3428 C.3   1     <0>1   -0.0372
     15 N1          0.9078   -6.0638    0.6350 N.pl3 1     <0>1   -0.2214
     16 N2          1.0514   -6.2039    1.8715 N.pl3 1     <0>1   -0.2207
     17 O1          0.7473   -5.1767    4.1427 O.co2 1     <0>1   -0.6439
     18 O2         -0.5019   -6.1897    5.7275 O.co2 1     <0>1   -0.6439
     19 O3          4.1229   -1.9210   -1.1840 O.3   1     <0>1   -0.3596
     20 H1         -2.0033  -10.1957    3.5309 H     1     <0>1    0.0618
     21 H2         -1.0702  -10.2056    1.2140 H     1     <0>1    0.0618
     22 H3         -1.4960   -8.2978    5.0736 H     1     <0>1    0.0626
     23 H4          0.3701   -8.3175    0.4396 H     1     <0>1    0.0634
     24 H5          3.4121   -6.3048   -0.2148 H     1     <0>1    0.0634
     25 H6          4.8553   -4.4344   -1.0323 H     1     <0>1    0.0644
     26 H7          0.1827   -3.5136    0.4763 H     1     <0>1    0.0637
     27 H141        2.1118   -0.4492   -0.7075 H     1     <0>1    0.0278
     28 H142        1.0930   -1.0268    0.6751 H     1     <0>1    0.0278
     29 H143        0.5767   -1.3114   -1.0115 H     1     <0>1    0.0278
     30 H1          0.2938   -6.6292    0.0488 H     1     <0>1    0.1471
     31 H2          2.0673   -6.1690    1.9558 H     1     <0>1    0.1471
     32 H3          3.7825   -1.0344   -1.2079 H     1     <0>1    0.2173
@<TRIPOS>BOND
     1     1     2    ar
     2     1     3    ar
     3     1    20    1 
     4     2     4    ar
     5     2    21    1 
     6     3     8    ar
     7     3    22    1 
     8     4    11    ar
     9     4    23    1 
    10     5     6    ar
    11     5    10    ar
    12     5    24    1 
    13     6    12    ar
    14     6    25    1 
    15     7     9    ar
    16     7    10    ar
    17     7    26    1 
    18     8    11    ar
    19     8    13    1 
    20     9    12    ar
    21     9    14    1 
    22    10    15    1 
    23    11    16    1 
    24    12    19    1 
    25    13    17    1 
    26    13    18    2 
    27    14    27    1 
    28    14    28    1 
    29    14    29    1 
    30    15    16    2 
    31    15    30    1 
    32    16    31    1 
    33    19    32    1 
@<TRIPOS>MOLECULE
Molecule streptavidin_2.mol2
    11     0
SMALL
NO_CHARGES
@<TRIPOS>ATOM
      1 DON         0.9078   -6.0638    0.6350 HB    0     HB      0.0000
      2 DON         1.0514   -6.2039    1.8710 HB    1     HB      0.0000
      3 DON         4.1229   -1.9210   -1.1840 HB    2     HB      0.0000
      4 ACC         0.7473   -5.1767    4.1427 HB    3     HB      0.0000
      5 ACC        -0.5019   -6.1897    5.7275 HB    4     HB      0.0000
      6 ACC         4.1229   -1.9210   -1.1840 HB    5     HB      0.0000
      7 ANI         0.0029   -6.1459    4.5450 CHG   6     CHG     0.2113
      8 AR         -0.5629   -8.3076    2.7566 AR    7     AR      0.0000
      9 AR          2.5198   -3.9720   -0.2787 AR    8     AR      0.0000
     10 HYD         1.7439   -1.9774   -0.3281 HYD   9     HYD     0.0000
     11 HYD         1.4685   -1.2837   -0.3428 HYD   10    HYD     0.0000
@<TRIPOS>BOND
@<TRIPOS>MOLECULE
streptavidin_3.mol2
    37    38
SMALL
NO_CHARGES
@<TRIPOS>ATOM
      1 C1         -1.3768   -9.3670    3.1691 C.ar  1     <0>1   -0.0609
      2 C2         -0.8529   -9.3674    1.8763 C.ar  1     <0>1   -0.0602
      3 C3         -1.0937   -8.3117    4.0361 C.ar  1     <0>1   -0.0466
      4 C4         -0.0460   -8.3123    1.4506 C.ar  1     <0>1   -0.0419
      5 C5          1.2259   -3.7071    0.1638 C.ar  1     <0>1   -0.0100
      6 C6          3.0306   -5.2662   -0.2222 C.ar  1     <0>1   -0.0100
      7 C7         -0.2867   -7.2567    3.6105 C.ar  1     <0>1    0.0667
      8 C8          0.2372   -7.2569    2.3177 C.ar  1     <0>1    0.0435
      9 C9          1.7275   -5.0047    0.1896 C.ar  1     <0>1    0.0349
     10 C10         2.0353   -2.6607   -0.2782 C.ar  1     <0>1    0.1095
     11 C11         3.8401   -4.2198   -0.6643 C.ar  1     <0>1    0.1095
     12 C12         3.3424   -2.9169   -0.6922 C.ar  1     <0>1    0.1330
     13 C13         0.0029   -6.1458    4.5449 C.2   1     <0>1    0.2113
     14 C14         0.1917   -1.2174    0.1390 C.3   1     <0>1    0.0431
     15 C15         6.1336   -4.4262   -0.0703 C.3   1     <0>1    0.0431
     16 N1          1.0470   -6.2090    1.8713 N.pl3 1     <0>1   -0.2207
     17 N2          0.9119   -6.0590    0.6350 N.pl3 1     <0>1   -0.2213
     18 O1          0.7473   -5.1767    4.1427 O.co2 1     <0>1   -0.6439
     19 O2         -0.5019   -6.1897    5.7275 O.co2 1     <0>1   -0.6439
     20 O3          4.1335   -1.8941   -1.1247 O.3   1     <0>1   -0.3554
     21 O4          1.5369   -1.3929   -0.3009 O.3   1     <0>1   -0.3452
     22 O5          5.1146   -4.4837   -1.0665 O.3   1     <0>1   -0.3452
     23 H1         -2.0149  -10.2014    3.5057 H     1     <0>1    0.0618
     24 H2         -1.0768  -10.2019    1.1908 H     1     <0>1    0.0618
     25 H3         -1.5081   -8.3115    5.0583 H     1     <0>1    0.0626
     26 H4          0.3682   -8.3124    0.4283 H     1     <0>1    0.0634
     27 H5          0.1920   -3.5068    0.4918 H     1     <0>1    0.0660
     28 H6          3.4220   -6.2971   -0.1991 H     1     <0>1    0.0660
     29 H141       -0.2162   -0.1799    0.1204 H     1     <0>1    0.0529
     30 H142        0.0767   -1.6438    1.1629 H     1     <0>1    0.0529
     31 H143       -0.4506   -1.8280   -0.5379 H     1     <0>1    0.0529
     32 H151        7.1767   -4.6422   -0.3995 H     1     <0>1    0.0529
     33 H152        5.8640   -5.0996    0.7764 H     1     <0>1    0.0529
     34 H153        6.1319   -3.3864    0.3322 H     1     <0>1    0.0529
     35 H1          1.6582   -5.6493    2.4659 H     1     <0>1    0.1471
     36 H2          0.3010   -6.6187    0.0402 H     1     <0>1    0.1471
     37 H3          5.0237   -2.0687   -1.4067 H     1     <0>1    0.2175
@<TRIPOS>BOND
     1     1     2    ar
     2     1     3    ar
     3     1    23    1 
     4     2     4    ar
     5     2    24    1 
     6     3     7    ar
     7     3    25    1 
     8     4     8    ar
     9     4    26    1 
    10     5     9    ar
    11     5    10    ar
    12     5    27    1 
    13     6     9    ar
    14     6    11    ar
    15     6    28    1 
    16     7     8    ar
    17     7    13    1 
    18     8    16    1 
    19     9    17    1 
    20    10    12    ar
    21    10    21    1 
    22    11    12    ar
    23    11    22    1 
    24    12    20    1 
    25    13    18    1 
    26    13    19    2 
    27    14    21    1 
    28    14    29    1 
    29    14    30    1 
    30    14    31    1 
    31    15    22    1 
    32    15    32    1 
    33    15    33    1 
    34    15    34    1 
    35    16    17    2 
    36    16    35    1 
    37    17    36    1 
    38    20    37    1 
@<TRIPOS>MOLECULE
Molecule streptavidin_3.mol2
    13     0
SMALL
NO_CHARGES
@<TRIPOS>ATOM
      1 DON         1.0470   -6.2090    1.8713 HB    0     HB      0.0000
      2 DON         0.9119   -6.0590    0.6350 HB    1     HB      0.0000
      3 DON         4.1335   -1.8941   -1.1247 HB    2     HB      0.0000
      4 ACC         0.7448   -5.1831    4.1448 HB    3     HB      0.0000
      5 ACC        -0.5064   -6.1978    5.7270 HB    4     HB      0.0000
      6 ACC         4.1335   -1.8941   -1.1247 HB    5     HB      0.0000
      7 ACC         1.5369   -1.3929   -0.3009 HB    6     HB      0.0000
      8 ACC         5.1146   -4.4837   -1.0665 HB    7     HB      0.0000
      9 ANI        -0.0006   -6.1523    4.5449 CHG   8     CHG     0.2113
     10 AR         -0.5698   -8.3120    2.7434 AR    9     AR      0.0000
     11 AR          2.5336   -3.9626   -0.2506 AR    10    AR      0.0000
     12 HYD         0.1917   -1.2174    0.1390 HYD   11    HYD     0.0000
     13 HYD         6.1336   -4.4262   -0.0703 HYD   12    HYD     0.0000
@<TRIPOS>BOND
@<TRIPOS>MOLECULE
streptavidin_4.mol2
    35    36
SMALL
NO_CHARGES
@<TRIPOS>ATOM
      1 C1         -1.3763   -9.3674    3.1694 C.ar  1     <0>1   -0.0609
      2 C2         -0.8527   -9.3676    1.8765 C.ar  1     <0>1   -0.0602
      3 C3         -1.0933   -8.3119    4.0364 C.ar  1     <0>1   -0.0466
      4 C4         -0.0461   -8.3123    1.4506 C.ar  1     <0>1   -0.0419
      5 C5          3.0306   -5.2663   -0.2225 C.ar  1     <0>1   -0.0373
      6 C6          1.2260   -3.7069    0.1636 C.ar  1     <0>1   -0.0373
      7 C7         -0.2867   -7.2567    3.6104 C.ar  1     <0>1    0.0667
      8 C8          3.8400   -4.2200   -0.6647 C.ar  1     <0>1   -0.0190
      9 C9          2.0355   -2.6606   -0.2786 C.ar  1     <0>1   -0.0190
     10 C10         0.2369   -7.2568    2.3176 C.ar  1     <0>1    0.0435
     11 C11         1.7275   -5.0047    0.1895 C.ar  1     <0>1    0.0305
     12 C12         3.3426   -2.9172   -0.6927 C.ar  1     <0>1    0.0785
     13 C13         0.0029   -6.1459    4.5449 C.2   1     <0>1    0.2113
     14 C14         5.2359   -4.5148   -1.1061 C.3   1     <0>1   -0.0372
     15 C15         1.4854   -1.2724   -0.3002 C.3   1     <0>1   -0.0372
     16 N1          1.0470   -6.2090    1.8713 N.pl3 1     <0>1   -0.2207
     17 N2          0.9119   -6.0590    0.6351 N.pl3 1     <0>1   -0.2214
     18 O1          0.7473   -5.1767    4.1427 O.co2 1     <0>1   -0.6439
     19 O2         -0.5019   -6.1896    5.7275 O.co2 1     <0>1   -0.6439
     20 O3          4.1339   -1.8943   -1.1257 O.3   1     <0>1   -0.3593
     21 H1         -2.0142  -10.2019    3.5062 H     1     <0>1    0.0618
     22 H2         -1.0765  -10.2022    1.1910 H     1     <0>1    0.0618
     23 H3         -1.5073   -8.3118    5.0587 H     1     <0>1    0.0626
     24 H4          0.3679   -8.3125    0.4283 H     1     <0>1    0.0634
     25 H5          3.4219   -6.2973   -0.1996 H     1     <0>1    0.0637
     26 H6          0.1922   -3.5064    0.4914 H     1     <0>1    0.0637
     27 H141        5.8830   -3.6783   -1.4595 H     1     <0>1    0.0278
     28 H142        5.2027   -5.3000   -1.8970 H     1     <0>1    0.0278
     29 H143        5.7557   -4.9690   -0.2304 H     1     <0>1    0.0278
     30 H151        2.1325   -0.4360   -0.6537 H     1     <0>1    0.0278
     31 H152        1.1030   -1.0234    0.7171 H     1     <0>1    0.0278
     32 H153        0.5984   -1.2938   -0.9755 H     1     <0>1    0.0278
     33 H1          2.0649   -6.1736    1.9579 H     1     <0>1    0.1471
     34 H2          0.3010   -6.6188    0.0403 H     1     <0>1    0.1471
     35 H3          3.7951   -1.0069   -1.1448 H     1     <0>1    0.2173
@<TRIPOS>BOND
     1     1     2    ar
     2     1     3    ar
     3     1    21    1 
     4     2     4    ar
     5     2    22    1 
     6     3     7    ar
     7     3    23    1 
     8     4    10    ar
     9     4    24    1 
    10     5     8    ar
    11     5    11    ar
    12     5    25    1 
    13     6     9    ar
    14     6    11    ar
    15     6    26    1 
    16     7    10    ar
    17     7    13    1 
    18     8    12    ar
    19     8    14    1 
    20     9    12    ar
    21     9    15    1 
    22    10    16    1 
    23    11    17    1 
    24    12    20    1 
    25    13    18    1 
    26    13    19    2 
    27    14    27    1 
    28    14    28    1 
    29    14    29    1 
    30    15    30    1 
    31    15    31    1 
    32    15    32    1 
    33    16    17    2 
    34    16    33    1 
    35    17    34    1 
    36    20    35    1 
@<TRIPOS>MOLECULE
Molecule streptavidin_4.mol2
    13     0
SMALL
NO_CHARGES
@<TRIPOS>ATOM
      1 DON         1.0491   -6.2065    1.8708 HB    0     HB      0.0000
      2 DON         0.9119   -6.0590    0.6351 HB    1     HB      0.0000
      3 DON         4.1339   -1.8943   -1.1257 HB    2     HB      0.0000
      4 ACC         0.7473   -5.1767    4.1427 HB    3     HB      0.0000
      5 ACC        -0.5019   -6.1896    5.7275 HB    4     HB      0.0000
      6 ACC         4.1339   -1.8943   -1.1257 HB    5     HB      0.0000
      7 ANI         0.0029   -6.1459    4.5449 CHG   6     CHG     0.2113
      8 AR         -0.5697   -8.3121    2.7435 AR    7     AR      0.0000
      9 AR          2.5337   -3.9626   -0.2509 AR    8     AR      0.0000
     10 HYD         4.5380   -4.3674   -0.8854 HYD   9     HYD     0.0000
     11 HYD         1.7605   -1.9665   -0.2894 HYD   10    HYD     0.0000
     12 HYD         5.2359   -4.5148   -1.1061 HYD   11    HYD     0.0000
     13 HYD         1.4854   -1.2724   -0.3002 HYD   12    HYD     0.0000
@<TRIPOS>BOND
